<?xml version="1.0" encoding="UTF-8"?>

<!-- generated on 2024-06-13 23:37:00 by Eclipse SUMO netedit Version 1.20.0 -->

<routes xmlns:xsi="http://www.w3.org/2001/XMLSchema-instance" xsi:noNamespaceSchemaLocation="http://sumo.dlr.de/xsd/routes_file.xsd">
    <!-- Routes -->
    <route id="r_0" edges="E10 E6 E4 E12"/>
    <route id="r_1" edges="E10 E6 -E5 E11"/>
    <route id="r_10" edges="-E13 -E3 -E6 -E10"/>
    <route id="r_11" edges="-E13 -E3 E4 E12"/>
    <route id="r_12" edges="-E13 -E3 -E5 E11"/>
    <route id="r_2" edges="-E12 -E4 -E6 -E10"/>
    <route id="r_3" edges="E10 E6 E3 E13"/>
    <route id="r_4" edges="-E12 -E4 E3 E13"/>
    <route id="r_5" edges="-E12 -E4 -E5 E11"/>
    <route id="r_6" edges="-E12 -E4 E3 E13"/>
    <route id="r_7" edges="-E11 E5 E4 E12"/>
    <route id="r_8" edges="-E11 E5 -E6 -E10"/>
    <route id="r_9" edges="-E11 E5 E3 E13"/>

    <vType accel="3.0" decel="6.0" id="CarA" length="5.0" minGap="2.5" maxSpeed="10.0" sigma="0.5" />
    <vType accel="2.0" decel="6.0" id="CarB" length="7.5" minGap="2.5" maxSpeed="50.0" sigma="0.5" />
    <vType accel="1.0" decel="5.0" id="CarC" length="5.0" minGap="2.5" maxSpeed="40.0" sigma="0.5" />
    <vType accel="1.0" decel="5.0" id="CarD" length="7.5" minGap="2.5" maxSpeed="30.0" sigma="0.5" />

    <!-- CarA vehicles -->
    <vehicle depart="54000" id="vehA0" route="r_0" type="CarA" color="1,0,0" />
    <vehicle depart="54010" id="vehA1" route="r_1" type="CarA" color="1,0,0" />
    <vehicle depart="54020" id="vehA2" route="r_2" type="CarA" color="1,0,0" />
    <vehicle depart="54030" id="vehA3" route="r_3" type="CarA" color="1,0,0" />
    <vehicle depart="54040" id="vehA4" route="r_4" type="CarA" color="1,0,0" />
    <vehicle depart="54050" id="vehA5" route="r_5" type="CarA" color="1,0,0" />
    <vehicle depart="54060" id="vehA6" route="r_6" type="CarA" color="1,0,0" />
    <vehicle depart="54070" id="vehA7" route="r_7" type="CarA" color="1,0,0" />
    <vehicle depart="54080" id="vehA8" route="r_8" type="CarA" color="1,0,0" />
    <vehicle depart="54090" id="vehA9" route="r_9" type="CarA" color="1,0,0" />

    <!-- CarB vehicles -->
    <vehicle depart="54100" id="vehB0" route="r_0" type="CarB" color="0,1,0" />
    <vehicle depart="54110" id="vehB1" route="r_1" type="CarB" color="0,1,0" />
    <vehicle depart="54120" id="vehB2" route="r_2" type="CarB" color="0,1,0" />
    <vehicle depart="54130" id="vehB3" route="r_3" type="CarB" color="0,1,0" />
    <vehicle depart="54140" id="vehB4" route="r_4" type="CarB" color="0,1,0" />
    <vehicle depart="54150" id="vehB5" route="r_5" type="CarB" color="0,1,0" />
    <vehicle depart="54160" id="vehB6" route="r_6" type="CarB" color="0,1,0" />
    <vehicle depart="54170" id="vehB7" route="r_7" type="CarB" color="0,1,0" />
    <vehicle depart="54180" id="vehB8" route="r_8" type="CarB" color="0,1,0" />
    <vehicle depart="54190" id="vehB9" route="r_9" type="CarB" color="0,1,0" />

    <!-- CarC vehicles -->
    <vehicle depart="54200" id="vehC0" route="r_0" type="CarC" color="0,0,1" />
    <vehicle depart="54210" id="vehC1" route="r_1" type="CarC" color="0,0,1" />
    <vehicle depart="54220" id="vehC2" route="r_2" type="CarC" color="0,0,1" />
    <vehicle depart="54230" id="vehC3" route="r_3" type="CarC" color="0,0,1" />
    <vehicle depart="54240" id="vehC4" route="r_4" type="CarC" color="0,0,1" />
    <vehicle depart="54250" id="vehC5" route="r_5" type="CarC" color="0,0,1" />
    <vehicle depart="54260" id="vehC6" route="r_6" type="CarC" color="0,0,1" />
    <vehicle depart="54270" id="vehC7" route="r_7" type="CarC" color="0,0,1" />
    <vehicle depart="54280" id="vehC8" route="r_8" type="CarC" color="0,0,1" />
    <vehicle depart="54290" id="vehC9" route="r_9" type="CarC" color="0,0,1" />

    <!-- CarD vehicles -->
    <vehicle depart="54300" id="vehD0" route="r_0" type="CarD" color="1,1,0" />
    <vehicle depart="54310" id="vehD1" route="r_1" type="CarD" color="1,1,0" />
    <vehicle depart="54320" id="vehD2" route="r_2" type="CarD" color="1,1,0" />
    <vehicle depart="54330" id="vehD3" route="r_3" type="CarD" color="1,1,0" />
    <vehicle depart="54340" id="vehD4" route="r_4" type="CarD" color="1,1,0" />
    <vehicle depart="54350" id="vehD5" route="r_5" type="CarD" color="1,1,0" />
    <vehicle depart="54360" id="vehD6" route="r_6" type="CarD" color="1,1,0" />
    <vehicle depart="54370" id="vehD7" route="r_7" type="CarD" color="1,1,0" />
    <vehicle depart="54380" id="vehD8" route="r_8" type="CarD" color="1,1,0" />
    <vehicle depart="54390" id="vehD9" route="r_9" type="CarD" color="1,1,0" />
</routes>
