<?xml version="1.0" encoding="UTF-8"?>

<!-- generated on 2024-06-13 23:12:37 by Eclipse SUMO netedit Version 1.20.0 -->

<routes xmlns:xsi="http://www.w3.org/2001/XMLSchema-instance"
    xsi:noNamespaceSchemaLocation="http://sumo.dlr.de/xsd/routes_file.xsd">
    <!-- Routes -->
    <route id="r_0" edges="-E11 E16 E13" />
    <route id="r_1" edges="-E11 E16 E17 -E10" />
    <route id="r_10" edges="E10 E14 E15 E16 E13" />
    <route id="r_11" edges="E10 E14 E15 E16 E17 -E10" />
    <route id="r_12" edges="-E12 E15 E11" />
    <route id="r_13" edges="-E12 E15 E16 E13" />
    <route id="r_14" edges="-E12 E15 E16 E17 -E10" />
    <route id="r_15" edges="-E12 E15 E16 E17 E14 E12" />
    <route id="r_2" edges="-E11 E16 E17 E14 E12" />
    <route id="r_3" edges="-E11 E16 E17 E14 E15 E11" />
    <route id="r_4" edges="-E13 E17 -E10" />
    <route id="r_5" edges="-E13 E17 E14 E12" />
    <route id="r_6" edges="-E13 E17 E14 E15 E11" />
    <route id="r_7" edges="-E13 E17 E14 E15 E16 E13" />
    <route id="r_8" edges="E10 E14 E12" />
    <route id="r_9" edges="E10 E14 E15 E11" />

    <!-- Vehicle Types -->
    <vType accel="3.0" decel="6.0" id="CarA" length="5.0" minGap="2.5" maxSpeed="10.0" sigma="0.5" />
    <vType accel="2.0" decel="6.0" id="CarB" length="7.5" minGap="2.5" maxSpeed="50.0" sigma="0.5" />
    <vType accel="1.0" decel="5.0" id="CarC" length="5.0" minGap="2.5" maxSpeed="40.0" sigma="0.5" />
    <vType accel="1.0" decel="5.0" id="CarD" length="7.5" minGap="2.5" maxSpeed="30.0" sigma="0.5" />

    <!-- Vehicles -->
    <vehicle id="0veh418" type="CarB" depart="0.00" color="blue" route="r_11" />
    <vehicle id="0veh419" type="CarC" depart="0.00" color="yellow" route="r_11" />
    <vehicle id="veh0" type="CarA" depart="0.00" color="magenta" route="r_0" />
    <vehicle id="veh0187" type="CarA" depart="0.00" color="green" route="r_5" />
    <vehicle id="veh0253" type="CarA" depart="0.00" color="green" route="r_6" />
    <vehicle id="veh0254" type="CarA" depart="0.00" color="green" route="r_6" />
    <vehicle id="veh0285" type="CarA" depart="0.00" color="green" route="r_7" />
    <vehicle id="veh0286" type="CarA" depart="0.00" color="green" route="r_7" />
    <vehicle id="veh0319" type="CarD" depart="0.00" color="green" route="r_8" />
    <vehicle id="veh0320" type="CarC" depart="0.00" color="green" route="r_8" />
    <vehicle id="veh0352" type="CarA" depart="0.00" color="green" route="r_9" />
    <vehicle id="veh0353" type="CarB" depart="0.00" color="blue" route="r_9" />
    <vehicle id="veh0385" type="CarB" depart="0.00" color="blue" route="r_10" />
    <vehicle id="veh0386" type="CarC" depart="0.00" color="yellow" route="r_10" />
    <vehicle id="veh0451" type="CarB" depart="0.00" color="blue" route="r_12" />
    <vehicle id="veh0452" type="CarC" depart="0.00" color="yellow" route="r_12" />
    <vehicle id="veh0484" type="CarA" depart="0.00" color="green" route="r_13" />
    <vehicle id="veh0485" type="CarB" depart="0.00" color="blue" route="r_13" />
    <vehicle id="veh1" type="CarB" depart="0.00" color="green" route="r_0" />
    <vehicle id="veh10" type="CarC" depart="0.00" color="230,230,26" route="r_0" />
    <vehicle id="veh100" type="CarA" depart="0.00" color="green" route="r_2" />
    <vehicle id="veh101" type="CarB" depart="0.00" color="blue" route="r_2" />
    <vehicle id="veh102" type="CarC" depart="0.00" color="yellow" route="r_2" />
    <vehicle id="veh103" type="CarD" depart="0.00" color="magenta" route="r_2" />
    <vehicle id="veh104" type="CarA" depart="0.00" color="green" route="r_2" />
    <vehicle id="veh106" type="CarC" depart="0.00" color="yellow" route="r_3" />
    <vehicle id="veh107" type="CarD" depart="0.00" color="magenta" route="r_3" />
    <vehicle id="veh108" type="CarA" depart="0.00" color="green" route="r_3" />
    <vehicle id="veh109" type="CarB" depart="0.00" color="blue" route="r_3" />
    <vehicle id="veh11" type="CarD" depart="0.00" color="230,26,230" route="r_0" />
    <vehicle id="veh110" type="CarC" depart="0.00" color="yellow" route="r_3" />
    <vehicle id="veh111" type="CarD" depart="0.00" color="magenta" route="r_3" />
    <vehicle id="veh112" type="CarA" depart="0.00" color="green" route="r_3" />
    <vehicle id="veh113" type="CarB" depart="0.00" color="blue" route="r_3" />
    <vehicle id="veh114" type="CarC" depart="0.00" color="yellow" route="r_3" />
    <vehicle id="veh115" type="CarD" depart="0.00" color="magenta" route="r_3" />
    <vehicle id="veh116" type="CarA" depart="0.00" color="green" route="r_3" />
    <vehicle id="veh117" type="CarB" depart="0.00" color="blue" route="r_3" />
    <vehicle id="veh118" type="CarC" depart="0.00" color="yellow" route="r_3" />
    <vehicle id="veh119" type="CarD" depart="0.00" color="magenta" route="r_3" />
    <vehicle id="veh12" type="CarA" depart="0.00" color="26,230,230" route="r_0" />
    <vehicle id="veh120" type="CarA" depart="0.00" color="green" route="r_3" />
    <vehicle id="veh121" type="CarB" depart="0.00" color="blue" route="r_3" />
    <vehicle id="veh122" type="CarC" depart="0.00" color="yellow" route="r_3" />
    <vehicle id="veh123" type="CarD" depart="0.00" color="magenta" route="r_3" />
    <vehicle id="veh124" type="CarA" depart="0.00" color="green" route="r_3" />
    <vehicle id="veh125" type="CarB" depart="0.00" color="blue" route="r_3" />
    <vehicle id="veh126" type="CarC" depart="0.00" color="yellow" route="r_3" />
    <vehicle id="veh127" type="CarD" depart="0.00" color="magenta" route="r_3" />
    <vehicle id="veh128" type="CarA" depart="0.00" color="green" route="r_3" />
    <vehicle id="veh129" type="CarB" depart="0.00" color="blue" route="r_3" />
    <vehicle id="veh13" type="CarB" depart="0.00" color="128,26,230" route="r_0" />
    <vehicle id="veh130" type="CarC" depart="0.00" color="yellow" route="r_3" />
    <vehicle id="veh131" type="CarD" depart="0.00" color="magenta" route="r_3" />
    <vehicle id="veh132" type="CarA" depart="0.00" color="green" route="r_3" />
    <vehicle id="veh133" type="CarB" depart="0.00" color="blue" route="r_3" />
    <vehicle id="veh134" type="CarC" depart="0.00" color="yellow" route="r_3" />
    <vehicle id="veh135" type="CarD" depart="0.00" color="magenta" route="r_3" />
    <vehicle id="veh136" type="CarA" depart="0.00" color="green" route="r_3" />
    <vehicle id="veh137" type="CarB" depart="0.00" color="blue" route="r_3" />
    <vehicle id="veh138" type="CarC" depart="0.00" color="yellow" route="r_3" />
    <vehicle id="veh139" type="CarD" depart="0.00" color="magenta" route="r_3" />
    <vehicle id="veh14" type="CarC" depart="0.00" color="26,128,230" route="r_0" />
    <vehicle id="veh140" type="CarA" depart="0.00" color="green" route="r_3" />
    <vehicle id="veh15" type="CarD" depart="0.00" color="230,128,26" route="r_0" />
    <vehicle id="veh150" type="CarC" depart="0.00" color="yellow" route="r_4" />
    <vehicle id="veh151" type="CarD" depart="0.00" color="magenta" route="r_4" />
    <vehicle id="veh152" type="CarA" depart="0.00" color="green" route="r_4" />
    <vehicle id="veh153" type="CarB" depart="0.00" color="blue" route="r_4" />
    <vehicle id="veh154" type="CarC" depart="0.00" color="yellow" route="r_4" />
    <vehicle id="veh155" type="CarD" depart="0.00" color="magenta" route="r_4" />
    <vehicle id="veh156" type="CarA" depart="0.00" color="green" route="r_4" />
    <vehicle id="veh157" type="CarB" depart="0.00" color="blue" route="r_4" />
    <vehicle id="veh158" type="CarC" depart="0.00" color="yellow" route="r_4" />
    <vehicle id="veh159" type="CarD" depart="0.00" color="magenta" route="r_4" />
    <vehicle id="veh16" type="CarA" depart="0.00" color="255,153,153" route="r_0" />
    <vehicle id="veh160" type="CarA" depart="0.00" color="green" route="r_4" />
    <vehicle id="veh161" type="CarB" depart="0.00" color="blue" route="r_4" />
    <vehicle id="veh162" type="CarC" depart="0.00" color="yellow" route="r_4" />
    <vehicle id="veh163" type="CarD" depart="0.00" color="magenta" route="r_4" />
    <vehicle id="veh164" type="CarA" depart="0.00" color="green" route="r_4" />
    <vehicle id="veh165" type="CarB" depart="0.00" color="blue" route="r_4" />
    <vehicle id="veh166" type="CarC" depart="0.00" color="yellow" route="r_4" />
    <vehicle id="veh167" type="CarD" depart="0.00" color="magenta" route="r_4" />
    <vehicle id="veh168" type="CarA" depart="0.00" color="green" route="r_4" />
    <vehicle id="veh169" type="CarB" depart="0.00" color="blue" route="r_4" />
    <vehicle id="veh17" type="CarB" depart="0.00" color="153,255,153" route="r_0" />
    <vehicle id="veh170" type="CarC" depart="0.00" color="yellow" route="r_4" />
    <vehicle id="veh171" type="CarD" depart="0.00" color="magenta" route="r_4" />
    <vehicle id="veh172" type="CarA" depart="0.00" color="green" route="r_4" />
    <vehicle id="veh173" type="CarB" depart="0.00" color="blue" route="r_4" />
    <vehicle id="veh174" type="CarC" depart="0.00" color="yellow" route="r_4" />
    <vehicle id="veh175" type="CarD" depart="0.00" color="magenta" route="r_4" />
    <vehicle id="veh176" type="CarA" depart="0.00" color="green" route="r_4" />
    <vehicle id="veh177" type="CarB" depart="0.00" color="blue" route="r_4" />
    <vehicle id="veh178" type="CarC" depart="0.00" color="yellow" route="r_4" />
    <vehicle id="veh179" type="CarD" depart="0.00" color="magenta" route="r_4" />
    <vehicle id="veh18" type="CarC" depart="0.00" color="153,153,255" route="r_0" />
    <vehicle id="veh180" type="CarA" depart="0.00" color="green" route="r_4" />
    <vehicle id="veh181" type="CarB" depart="0.00" color="blue" route="r_4" />
    <vehicle id="veh182" type="CarC" depart="0.00" color="yellow" route="r_4" />
    <vehicle id="veh183" type="CarD" depart="0.00" color="magenta" route="r_4" />
    <vehicle id="veh184" type="CarA" depart="0.00" color="green" route="r_4" />
    <vehicle id="veh185" type="CarC" depart="0.00" color="yellow" route="r_5" />
    <vehicle id="veh186" type="CarD" depart="0.00" color="magenta" route="r_5" />
    <vehicle id="veh187" type="CarB" depart="0.00" color="blue" route="r_5" />
    <vehicle id="veh189" type="CarC" depart="0.00" color="yellow" route="r_5" />
    <vehicle id="veh19" type="CarD" depart="0.00" color="255,102,153" route="r_0" />
    <vehicle id="veh190" type="CarD" depart="0.00" color="magenta" route="r_5" />
    <vehicle id="veh191" type="CarA" depart="0.00" color="green" route="r_5" />
    <vehicle id="veh192" type="CarB" depart="0.00" color="blue" route="r_5" />
    <vehicle id="veh193" type="CarC" depart="0.00" color="yellow" route="r_5" />
    <vehicle id="veh194" type="CarD" depart="0.00" color="magenta" route="r_5" />
    <vehicle id="veh195" type="CarA" depart="0.00" color="green" route="r_5" />
    <vehicle id="veh196" type="CarB" depart="0.00" color="blue" route="r_5" />
    <vehicle id="veh197" type="CarC" depart="0.00" color="yellow" route="r_5" />
    <vehicle id="veh198" type="CarD" depart="0.00" color="magenta" route="r_5" />
    <vehicle id="veh199" type="CarA" depart="0.00" color="green" route="r_5" />
    <vehicle id="veh2" type="CarC" depart="0.00" color="blue" route="r_0" />
    <vehicle id="veh20" type="CarA" depart="0.00" color="255,179,179" route="r_0" />
    <vehicle id="veh200" type="CarB" depart="0.00" color="blue" route="r_5" />
    <vehicle id="veh201" type="CarC" depart="0.00" color="yellow" route="r_5" />
    <vehicle id="veh202" type="CarD" depart="0.00" color="magenta" route="r_5" />
    <vehicle id="veh203" type="CarA" depart="0.00" color="green" route="r_5" />
    <vehicle id="veh204" type="CarB" depart="0.00" color="blue" route="r_5" />
    <vehicle id="veh205" type="CarC" depart="0.00" color="yellow" route="r_5" />
    <vehicle id="veh206" type="CarD" depart="0.00" color="magenta" route="r_5" />
    <vehicle id="veh207" type="CarA" depart="0.00" color="green" route="r_5" />
    <vehicle id="veh208" type="CarB" depart="0.00" color="blue" route="r_5" />
    <vehicle id="veh209" type="CarC" depart="0.00" color="yellow" route="r_5" />
    <vehicle id="veh21" type="CarB" depart="0.00" color="179,255,179" route="r_0" />
    <vehicle id="veh210" type="CarD" depart="0.00" color="magenta" route="r_5" />
    <vehicle id="veh211" type="CarA" depart="0.00" color="green" route="r_5" />
    <vehicle id="veh212" type="CarB" depart="0.00" color="blue" route="r_5" />
    <vehicle id="veh213" type="CarC" depart="0.00" color="yellow" route="r_5" />
    <vehicle id="veh214" type="CarD" depart="0.00" color="magenta" route="r_5" />
    <vehicle id="veh215" type="CarA" depart="0.00" color="green" route="r_5" />
    <vehicle id="veh216" type="CarB" depart="0.00" color="blue" route="r_5" />
    <vehicle id="veh217" type="CarC" depart="0.00" color="yellow" route="r_5" />
    <vehicle id="veh218" type="CarD" depart="0.00" color="magenta" route="r_5" />
    <vehicle id="veh219" type="CarA" depart="0.00" color="green" route="r_5" />
    <vehicle id="veh22" type="CarC" depart="0.00" color="179,179,255" route="r_0" />
    <vehicle id="veh220" type="CarA" depart="0.00" color="green" route="r_6" />
    <vehicle id="veh221" type="CarB" depart="0.00" color="blue" route="r_6" />
    <vehicle id="veh222" type="CarC" depart="0.00" color="yellow" route="r_6" />
    <vehicle id="veh223" type="CarD" depart="0.00" color="magenta" route="r_6" />
    <vehicle id="veh224" type="CarA" depart="0.00" color="green" route="r_6" />
    <vehicle id="veh225" type="CarB" depart="0.00" color="blue" route="r_6" />
    <vehicle id="veh226" type="CarC" depart="0.00" color="yellow" route="r_6" />
    <vehicle id="veh227" type="CarD" depart="0.00" color="magenta" route="r_6" />
    <vehicle id="veh228" type="CarA" depart="0.00" color="green" route="r_6" />
    <vehicle id="veh229" type="CarB" depart="0.00" color="blue" route="r_6" />
    <vehicle id="veh23" type="CarD" depart="0.00" color="255,77,179" route="r_0" />
    <vehicle id="veh230" type="CarC" depart="0.00" color="yellow" route="r_6" />
    <vehicle id="veh231" type="CarD" depart="0.00" color="magenta" route="r_6" />
    <vehicle id="veh232" type="CarA" depart="0.00" color="green" route="r_6" />
    <vehicle id="veh233" type="CarB" depart="0.00" color="blue" route="r_6" />
    <vehicle id="veh234" type="CarC" depart="0.00" color="yellow" route="r_6" />
    <vehicle id="veh235" type="CarD" depart="0.00" color="magenta" route="r_6" />
    <vehicle id="veh236" type="CarA" depart="0.00" color="green" route="r_6" />
    <vehicle id="veh237" type="CarB" depart="0.00" color="blue" route="r_6" />
    <vehicle id="veh238" type="CarC" depart="0.00" color="yellow" route="r_6" />
    <vehicle id="veh239" type="CarD" depart="0.00" color="magenta" route="r_6" />
    <vehicle id="veh24" type="CarA" depart="0.00" color="255,204,204" route="r_0" />
    <vehicle id="veh240" type="CarA" depart="0.00" color="green" route="r_6" />
    <vehicle id="veh241" type="CarB" depart="0.00" color="blue" route="r_6" />
    <vehicle id="veh242" type="CarC" depart="0.00" color="yellow" route="r_6" />
    <vehicle id="veh243" type="CarD" depart="0.00" color="magenta" route="r_6" />
    <vehicle id="veh244" type="CarA" depart="0.00" color="green" route="r_6" />
    <vehicle id="veh245" type="CarB" depart="0.00" color="blue" route="r_6" />
    <vehicle id="veh246" type="CarC" depart="0.00" color="yellow" route="r_6" />
    <vehicle id="veh247" type="CarD" depart="0.00" color="magenta" route="r_6" />
    <vehicle id="veh248" type="CarA" depart="0.00" color="green" route="r_6" />
    <vehicle id="veh249" type="CarB" depart="0.00" color="blue" route="r_6" />
    <vehicle id="veh25" type="CarB" depart="0.00" color="204,255,204" route="r_0" />
    <vehicle id="veh250" type="CarC" depart="0.00" color="yellow" route="r_6" />
    <vehicle id="veh251" type="CarD" depart="0.00" color="magenta" route="r_6" />
    <vehicle id="veh252" type="CarA" depart="0.00" color="green" route="r_6" />
    <vehicle id="veh253" type="CarA" depart="0.00" color="green" route="r_7" />
    <vehicle id="veh254" type="CarB" depart="0.00" color="blue" route="r_7" />
    <vehicle id="veh255" type="CarC" depart="0.00" color="yellow" route="r_7" />
    <vehicle id="veh256" type="CarD" depart="0.00" color="magenta" route="r_7" />
    <vehicle id="veh257" type="CarA" depart="0.00" color="green" route="r_7" />
    <vehicle id="veh258" type="CarB" depart="0.00" color="blue" route="r_7" />
    <vehicle id="veh259" type="CarC" depart="0.00" color="yellow" route="r_7" />
    <vehicle id="veh26" type="CarC" depart="0.00" color="204,204,255" route="r_0" />
    <vehicle id="veh260" type="CarD" depart="0.00" color="magenta" route="r_7" />
    <vehicle id="veh261" type="CarA" depart="0.00" color="green" route="r_7" />
    <vehicle id="veh262" type="CarB" depart="0.00" color="blue" route="r_7" />
    <vehicle id="veh263" type="CarC" depart="0.00" color="yellow" route="r_7" />
    <vehicle id="veh264" type="CarD" depart="0.00" color="magenta" route="r_7" />
    <vehicle id="veh265" type="CarA" depart="0.00" color="green" route="r_7" />
    <vehicle id="veh266" type="CarB" depart="0.00" color="blue" route="r_7" />
    <vehicle id="veh267" type="CarC" depart="0.00" color="yellow" route="r_7" />
    <vehicle id="veh268" type="CarD" depart="0.00" color="magenta" route="r_7" />
    <vehicle id="veh269" type="CarA" depart="0.00" color="green" route="r_7" />
    <vehicle id="veh27" type="CarD" depart="0.00" color="255,51,204" route="r_0" />
    <vehicle id="veh270" type="CarB" depart="0.00" color="blue" route="r_7" />
    <vehicle id="veh271" type="CarC" depart="0.00" color="yellow" route="r_7" />
    <vehicle id="veh272" type="CarD" depart="0.00" color="magenta" route="r_7" />
    <vehicle id="veh273" type="CarA" depart="0.00" color="green" route="r_7" />
    <vehicle id="veh274" type="CarB" depart="0.00" color="blue" route="r_7" />
    <vehicle id="veh275" type="CarC" depart="0.00" color="yellow" route="r_7" />
    <vehicle id="veh276" type="CarD" depart="0.00" color="magenta" route="r_7" />
    <vehicle id="veh277" type="CarA" depart="0.00" color="green" route="r_7" />
    <vehicle id="veh278" type="CarB" depart="0.00" color="blue" route="r_7" />
    <vehicle id="veh279" type="CarC" depart="0.00" color="yellow" route="r_7" />
    <vehicle id="veh28" type="CarA" depart="0.00" color="255,230,230" route="r_0" />
    <vehicle id="veh280" type="CarD" depart="0.00" color="magenta" route="r_7" />
    <vehicle id="veh281" type="CarA" depart="0.00" color="green" route="r_7" />
    <vehicle id="veh282" type="CarB" depart="0.00" color="blue" route="r_7" />
    <vehicle id="veh283" type="CarC" depart="0.00" color="yellow" route="r_7" />
    <vehicle id="veh284" type="CarD" depart="0.00" color="magenta" route="r_7" />
    <vehicle id="veh285" type="CarA" depart="0.00" color="green" route="r_7" />
    <vehicle id="veh286" type="CarA" depart="0.00" color="green" route="r_8" />
    <vehicle id="veh287" type="CarB" depart="0.00" color="blue" route="r_8" />
    <vehicle id="veh288" type="CarC" depart="0.00" color="yellow" route="r_8" />
    <vehicle id="veh289" type="CarD" depart="0.00" color="magenta" route="r_8" />
    <vehicle id="veh29" type="CarB" depart="0.00" color="230,255,230" route="r_0" />
    <vehicle id="veh290" type="CarA" depart="0.00" color="green" route="r_8" />
    <vehicle id="veh291" type="CarB" depart="0.00" color="blue" route="r_8" />
    <vehicle id="veh292" type="CarC" depart="0.00" color="yellow" route="r_8" />
    <vehicle id="veh293" type="CarD" depart="0.00" color="magenta" route="r_8" />
    <vehicle id="veh294" type="CarA" depart="0.00" color="green" route="r_8" />
    <vehicle id="veh295" type="CarB" depart="0.00" color="blue" route="r_8" />
    <vehicle id="veh296" type="CarC" depart="0.00" color="yellow" route="r_8" />
    <vehicle id="veh297" type="CarD" depart="0.00" color="magenta" route="r_8" />
    <vehicle id="veh298" type="CarA" depart="0.00" color="green" route="r_8" />
    <vehicle id="veh299" type="CarB" depart="0.00" color="blue" route="r_8" />
    <vehicle id="veh3" type="CarD" depart="0.00" color="yellow" route="r_0" />
    <vehicle id="veh30" type="CarC" depart="0.00" color="230,230,255" route="r_0" />
    <vehicle id="veh300" type="CarC" depart="0.00" color="yellow" route="r_8" />
    <vehicle id="veh301" type="CarD" depart="0.00" color="magenta" route="r_8" />
    <vehicle id="veh302" type="CarA" depart="0.00" color="green" route="r_8" />
    <vehicle id="veh303" type="CarB" depart="0.00" color="blue" route="r_8" />
    <vehicle id="veh304" type="CarC" depart="0.00" color="yellow" route="r_8" />
    <vehicle id="veh305" type="CarD" depart="0.00" color="magenta" route="r_8" />
    <vehicle id="veh306" type="CarA" depart="0.00" color="green" route="r_8" />
    <vehicle id="veh307" type="CarB" depart="0.00" color="blue" route="r_8" />
    <vehicle id="veh308" type="CarC" depart="0.00" color="yellow" route="r_8" />
    <vehicle id="veh309" type="CarD" depart="0.00" color="magenta" route="r_8" />
    <vehicle id="veh31" type="CarD" depart="0.00" color="255,26,230" route="r_0" />
    <vehicle id="veh310" type="CarA" depart="0.00" color="green" route="r_8" />
    <vehicle id="veh311" type="CarB" depart="0.00" color="blue" route="r_8" />
    <vehicle id="veh312" type="CarC" depart="0.00" color="yellow" route="r_8" />
    <vehicle id="veh313" type="CarD" depart="0.00" color="magenta" route="r_8" />
    <vehicle id="veh314" type="CarA" depart="0.00" color="green" route="r_8" />
    <vehicle id="veh315" type="CarB" depart="0.00" color="blue" route="r_8" />
    <vehicle id="veh316" type="CarC" depart="0.00" color="yellow" route="r_8" />
    <vehicle id="veh317" type="CarD" depart="0.00" color="magenta" route="r_8" />
    <vehicle id="veh318" type="CarA" depart="0.00" color="green" route="r_8" />
    <vehicle id="veh319" type="CarA" depart="0.00" color="green" route="r_9" />
    <vehicle id="veh32" type="CarA" depart="0.00" color="255,255,230" route="r_0" />
    <vehicle id="veh320" type="CarB" depart="0.00" color="blue" route="r_9" />
    <vehicle id="veh321" type="CarC" depart="0.00" color="yellow" route="r_9" />
    <vehicle id="veh322" type="CarD" depart="0.00" color="magenta" route="r_9" />
    <vehicle id="veh323" type="CarA" depart="0.00" color="green" route="r_9" />
    <vehicle id="veh324" type="CarB" depart="0.00" color="blue" route="r_9" />
    <vehicle id="veh325" type="CarC" depart="0.00" color="yellow" route="r_9" />
    <vehicle id="veh326" type="CarD" depart="0.00" color="magenta" route="r_9" />
    <vehicle id="veh327" type="CarA" depart="0.00" color="green" route="r_9" />
    <vehicle id="veh328" type="CarB" depart="0.00" color="blue" route="r_9" />
    <vehicle id="veh329" type="CarC" depart="0.00" color="yellow" route="r_9" />
    <vehicle id="veh33" type="CarB" depart="0.00" color="26,255,255" route="r_0" />
    <vehicle id="veh330" type="CarD" depart="0.00" color="magenta" route="r_9" />
    <vehicle id="veh331" type="CarA" depart="0.00" color="green" route="r_9" />
    <vehicle id="veh332" type="CarB" depart="0.00" color="blue" route="r_9" />
    <vehicle id="veh333" type="CarC" depart="0.00" color="yellow" route="r_9" />
    <vehicle id="veh334" type="CarD" depart="0.00" color="magenta" route="r_9" />
    <vehicle id="veh335" type="CarA" depart="0.00" color="green" route="r_9" />
    <vehicle id="veh336" type="CarB" depart="0.00" color="blue" route="r_9" />
    <vehicle id="veh337" type="CarC" depart="0.00" color="yellow" route="r_9" />
    <vehicle id="veh338" type="CarD" depart="0.00" color="magenta" route="r_9" />
    <vehicle id="veh339" type="CarA" depart="0.00" color="green" route="r_9" />
    <vehicle id="veh34" type="CarC" depart="0.00" color="51,255,255" route="r_0" />
    <vehicle id="veh340" type="CarB" depart="0.00" color="blue" route="r_9" />
    <vehicle id="veh341" type="CarC" depart="0.00" color="yellow" route="r_9" />
    <vehicle id="veh342" type="CarD" depart="0.00" color="magenta" route="r_9" />
    <vehicle id="veh343" type="CarA" depart="0.00" color="green" route="r_9" />
    <vehicle id="veh344" type="CarB" depart="0.00" color="blue" route="r_9" />
    <vehicle id="veh345" type="CarC" depart="0.00" color="yellow" route="r_9" />
    <vehicle id="veh346" type="CarD" depart="0.00" color="magenta" route="r_9" />
    <vehicle id="veh347" type="CarA" depart="0.00" color="green" route="r_9" />
    <vehicle id="veh348" type="CarB" depart="0.00" color="blue" route="r_9" />
    <vehicle id="veh349" type="CarC" depart="0.00" color="yellow" route="r_9" />
    <vehicle id="veh35" type="CarD" depart="0.00" color="255,255,51" route="r_1" />
    <vehicle id="veh350" type="CarD" depart="0.00" color="magenta" route="r_9" />
    <vehicle id="veh351" type="CarA" depart="0.00" color="green" route="r_9" />
    <vehicle id="veh352" type="CarA" depart="0.00" color="green" route="r_10" />
    <vehicle id="veh353" type="CarB" depart="0.00" color="blue" route="r_10" />
    <vehicle id="veh354" type="CarC" depart="0.00" color="yellow" route="r_10" />
    <vehicle id="veh355" type="CarD" depart="0.00" color="magenta" route="r_10" />
    <vehicle id="veh356" type="CarA" depart="0.00" color="green" route="r_10" />
    <vehicle id="veh357" type="CarB" depart="0.00" color="blue" route="r_10" />
    <vehicle id="veh358" type="CarC" depart="0.00" color="yellow" route="r_10" />
    <vehicle id="veh359" type="CarD" depart="0.00" color="magenta" route="r_10" />
    <vehicle id="veh36" type="CarA" depart="0.00" color="255,255,77" route="r_1" />
    <vehicle id="veh360" type="CarA" depart="0.00" color="green" route="r_10" />
    <vehicle id="veh361" type="CarB" depart="0.00" color="blue" route="r_10" />
    <vehicle id="veh362" type="CarC" depart="0.00" color="yellow" route="r_10" />
    <vehicle id="veh363" type="CarD" depart="0.00" color="magenta" route="r_10" />
    <vehicle id="veh364" type="CarA" depart="0.00" color="green" route="r_10" />
    <vehicle id="veh365" type="CarB" depart="0.00" color="blue" route="r_10" />
    <vehicle id="veh366" type="CarC" depart="0.00" color="yellow" route="r_10" />
    <vehicle id="veh367" type="CarD" depart="0.00" color="magenta" route="r_10" />
    <vehicle id="veh368" type="CarA" depart="0.00" color="green" route="r_10" />
    <vehicle id="veh369" type="CarB" depart="0.00" color="blue" route="r_10" />
    <vehicle id="veh37" type="CarB" depart="0.00" color="77,255,255" route="r_1" />
    <vehicle id="veh370" type="CarC" depart="0.00" color="yellow" route="r_10" />
    <vehicle id="veh371" type="CarD" depart="0.00" color="magenta" route="r_10" />
    <vehicle id="veh372" type="CarA" depart="0.00" color="green" route="r_10" />
    <vehicle id="veh373" type="CarB" depart="0.00" color="blue" route="r_10" />
    <vehicle id="veh374" type="CarC" depart="0.00" color="yellow" route="r_10" />
    <vehicle id="veh375" type="CarD" depart="0.00" color="magenta" route="r_10" />
    <vehicle id="veh376" type="CarA" depart="0.00" color="green" route="r_10" />
    <vehicle id="veh377" type="CarB" depart="0.00" color="blue" route="r_10" />
    <vehicle id="veh378" type="CarC" depart="0.00" color="yellow" route="r_10" />
    <vehicle id="veh379" type="CarD" depart="0.00" color="magenta" route="r_10" />
    <vehicle id="veh38" type="CarC" depart="0.00" color="102,255,255" route="r_1" />
    <vehicle id="veh380" type="CarA" depart="0.00" color="green" route="r_10" />
    <vehicle id="veh381" type="CarB" depart="0.00" color="blue" route="r_10" />
    <vehicle id="veh382" type="CarC" depart="0.00" color="yellow" route="r_10" />
    <vehicle id="veh383" type="CarD" depart="0.00" color="magenta" route="r_10" />
    <vehicle id="veh384" type="CarA" depart="0.00" color="green" route="r_10" />
    <vehicle id="veh385" type="CarA" depart="0.00" color="green" route="r_11" />
    <vehicle id="veh386" type="CarB" depart="0.00" color="blue" route="r_11" />
    <vehicle id="veh387" type="CarC" depart="0.00" color="yellow" route="r_11" />
    <vehicle id="veh388" type="CarD" depart="0.00" color="magenta" route="r_11" />
    <vehicle id="veh389" type="CarA" depart="0.00" color="green" route="r_11" />
    <vehicle id="veh39" type="CarD" depart="0.00" color="255,255,102" route="r_1" />
    <vehicle id="veh390" type="CarB" depart="0.00" color="blue" route="r_11" />
    <vehicle id="veh391" type="CarC" depart="0.00" color="yellow" route="r_11" />
    <vehicle id="veh392" type="CarD" depart="0.00" color="magenta" route="r_11" />
    <vehicle id="veh393" type="CarA" depart="0.00" color="green" route="r_11" />
    <vehicle id="veh394" type="CarB" depart="0.00" color="blue" route="r_11" />
    <vehicle id="veh395" type="CarC" depart="0.00" color="yellow" route="r_11" />
    <vehicle id="veh396" type="CarD" depart="0.00" color="magenta" route="r_11" />
    <vehicle id="veh397" type="CarA" depart="0.00" color="green" route="r_11" />
    <vehicle id="veh398" type="CarB" depart="0.00" color="blue" route="r_11" />
    <vehicle id="veh399" type="CarC" depart="0.00" color="yellow" route="r_11" />
    <vehicle id="veh4" type="CarA" depart="0.00" color="magenta" route="r_0" />
    <vehicle id="veh40" type="CarA" depart="0.00" color="255,255,128" route="r_1" />
    <vehicle id="veh400" type="CarD" depart="0.00" color="magenta" route="r_11" />
    <vehicle id="veh401" type="CarA" depart="0.00" color="green" route="r_11" />
    <vehicle id="veh402" type="CarB" depart="0.00" color="blue" route="r_11" />
    <vehicle id="veh403" type="CarC" depart="0.00" color="yellow" route="r_11" />
    <vehicle id="veh404" type="CarD" depart="0.00" color="magenta" route="r_11" />
    <vehicle id="veh405" type="CarA" depart="0.00" color="green" route="r_11" />
    <vehicle id="veh406" type="CarB" depart="0.00" color="blue" route="r_11" />
    <vehicle id="veh407" type="CarC" depart="0.00" color="yellow" route="r_11" />
    <vehicle id="veh408" type="CarD" depart="0.00" color="magenta" route="r_11" />