<?xml version="1.0" encoding="UTF-8"?>

<!-- generated on 2024-06-13 15:38:21 by Eclipse SUMO netedit Version 1.20.0
-->

<routes xmlns:xsi="http://www.w3.org/2001/XMLSchema-instance" xsi:noNamespaceSchemaLocation="http://sumo.dlr.de/xsd/routes_file.xsd">
    <!-- Routes -->
    <route id="r_0" edges="-E11 E16 E13"/>
    <route id="r_1" edges="-E11 E16 E17 -E10"/>
    <route id="r_10" edges="E10 E14 E15 E16 E13" color="yellow"/>
    <route id="r_11" edges="E10 E14 E15 E16 E17 -E10" color="yellow"/>
    <route id="r_12" edges="-E12 E15 E11" color="yellow"/>
    <route id="r_13" edges="-E12 E15 E16 E13" color="yellow"/>
    <route id="r_14" edges="-E12 E15 E16 E17 -E10" color="yellow"/>
    <route id="r_15" edges="-E12 E15 E16 E17 E14 E12" color="yellow"/>
    <route id="r_2" edges="-E11 E16 E17 E14 E12"/>
    <route id="r_3" edges="-E13 E17 -E10"/>
    <route id="r_4" edges="-E13 E17 E14 E12"/>
    <route id="r_5" edges="-E13 E17 E14 E15 E11"/>
    <route id="r_6" edges="-E11 E16 E17 E14 E15 E11"/>
    <route id="r_7" edges="-E13 E17 E14 E15 E16 E13"/>
    <route id="r_8" edges="E10 E14 E12" color="yellow"/>
    <route id="r_9" edges="E10 E14 E15 E11" color="yellow"/>
    <!-- Vehicles, persons and containers (sorted by depart) -->
    <flow id="f_0" begin="0.00" fromJunction="J0" toJunction="J14" end="3600.00" vehsPerHour="1800"/>
    <flow id="f_1" begin="0.00" fromJunction="J0" toJunction="J12" end="3600.00" vehsPerHour="1800"/>
</routes>
