<?xml version="1.0" encoding="UTF-8"?>

<!-- generated on 2024-06-14 11:46:00 by Eclipse SUMO netedit Version 1.20.0
-->

<routes xmlns:xsi="http://www.w3.org/2001/XMLSchema-instance" xsi:noNamespaceSchemaLocation="http://sumo.dlr.de/xsd/routes_file.xsd">
    <!-- VTypes -->
    <vType id="CarA" length="5.00" minGap="2.50" maxSpeed="10.00" vClass="passenger" accel="3.0" decel="5.0" sigma="0.5"/>
    <vType id="CarB" length="7.50" minGap="2.50" maxSpeed="50.00" accel="2.0" decel="6.0" sigma="0.5"/>
    <vType id="CarC" length="5.00" minGap="2.50" maxSpeed="40.00" accel="1.0" decel="5.0" sigma="0.5"/>
    <vType id="CarD" length="7.50" minGap="2.50" maxSpeed="30.00" accel="1.0" decel="5.0" sigma="0.5"/>
    <!-- Routes -->
    <route id="r_0" edges="E10 E6 E4 E12"/>
    <route id="r_1" edges="E10 E6 -E5 E11"/>
    <route id="r_10" edges="-E13 -E3 -E6 -E10"/>
    <route id="r_11" edges="-E13 -E3 E4 E12"/>
    <route id="r_12" edges="-E13 -E3 -E5 E11"/>
    <route id="r_13" edges="-E11 E5 -E5 E11"/>
    <route id="r_14" edges="-E13 -E3 E3 E13"/>
    <route id="r_15" edges="-E12 -E4 E4 E12"/>
    <route id="r_16" edges="E10 E6 -E6 -E10"/>
    <route id="r_2" edges="-E12 -E4 -E6 -E10"/>
    <route id="r_3" edges="E10 E6 E3 E13"/>
    <route id="r_4" edges="-E12 -E4 E3 E13"/>
    <route id="r_5" edges="-E12 -E4 -E5 E11"/>
    <route id="r_6" edges="-E12 -E4 E3 E13"/>
    <route id="r_7" edges="-E11 E5 E4 E12"/>
    <route id="r_8" edges="-E11 E5 -E6 -E10"/>
    <route id="r_9" edges="-E11 E5 E3 E13"/>
    <!-- Vehicles, persons and containers (sorted by depart) -->
    <vehicle id="veh0" type="CarA" depart="0.00" color="red" route="r_0"/>
    <vehicle id="veh1" type="CarB" depart="0.00" color="green" route="r_0"/>
    <vehicle id="veh10" type="CarC" depart="0.00" color="blue" route="r_1"/>
    <vehicle id="veh100" type="CarA" depart="0.00" color="red" route="r_10"/>
    <vehicle id="veh101" type="CarB" depart="0.00" color="green" route="r_10"/>
    <vehicle id="veh102" type="CarC" depart="0.00" color="blue" route="r_10"/>
    <vehicle id="veh103" type="CarD" depart="0.00" color="yellow" route="r_10"/>
    <vehicle id="veh104" type="CarA" depart="0.00" color="red" route="r_10"/>
    <vehicle id="veh105" type="CarB" depart="0.00" color="green" route="r_10"/>
    <vehicle id="veh106" type="CarC" depart="0.00" color="blue" route="r_10"/>
    <vehicle id="veh107" type="CarD" depart="0.00" color="yellow" route="r_10"/>
    <vehicle id="veh108" type="CarA" depart="0.00" color="red" route="r_10"/>
    <vehicle id="veh109" type="CarB" depart="0.00" color="green" route="r_10"/>
    <vehicle id="veh11" type="CarD" depart="0.00" color="yellow" route="r_1"/>
    <vehicle id="veh110" type="CarA" depart="0.00" color="red" route="r_0"/>
    <vehicle id="veh111" type="CarB" depart="0.00" color="green" route="r_0"/>
    <vehicle id="veh112" type="CarC" depart="0.00" color="blue" route="r_0"/>
    <vehicle id="veh113" type="CarD" depart="0.00" color="yellow" route="r_0"/>
    <vehicle id="veh114" type="CarA" depart="0.00" color="red" route="r_0"/>
    <vehicle id="veh115" type="CarB" depart="0.00" color="green" route="r_0"/>
    <vehicle id="veh116" type="CarC" depart="0.00" color="blue" route="r_0"/>
    <vehicle id="veh117" type="CarD" depart="0.00" color="yellow" route="r_0"/>
    <vehicle id="veh118" type="CarA" depart="0.00" color="red" route="r_0"/>
    <vehicle id="veh119" type="CarB" depart="0.00" color="green" route="r_0"/>
    <vehicle id="veh12" type="CarA" depart="0.00" color="red" route="r_1"/>
    <vehicle id="veh120" type="CarC" depart="0.00" color="blue" route="r_1"/>
    <vehicle id="veh121" type="CarD" depart="0.00" color="yellow" route="r_1"/>
    <vehicle id="veh122" type="CarA" depart="0.00" color="red" route="r_1"/>
    <vehicle id="veh123" type="CarB" depart="0.00" color="green" route="r_1"/>
    <vehicle id="veh124" type="CarC" depart="0.00" color="blue" route="r_1"/>
    <vehicle id="veh125" type="CarD" depart="0.00" color="yellow" route="r_1"/>
    <vehicle id="veh126" type="CarA" depart="0.00" color="red" route="r_1"/>
    <vehicle id="veh127" type="CarB" depart="0.00" color="green" route="r_1"/>
    <vehicle id="veh128" type="CarC" depart="0.00" color="blue" route="r_1"/>
    <vehicle id="veh129" type="CarD" depart="0.00" color="yellow" route="r_1"/>
    <vehicle id="veh13" type="CarB" depart="0.00" color="green" route="r_1"/>
    <vehicle id="veh130" type="CarA" depart="0.00" color="red" route="r_2"/>
    <vehicle id="veh131" type="CarB" depart="0.00" color="green" route="r_2"/>
    <vehicle id="veh132" type="CarC" depart="0.00" color="blue" route="r_2"/>
    <vehicle id="veh133" type="CarD" depart="0.00" color="yellow" route="r_2"/>
    <vehicle id="veh134" type="CarA" depart="0.00" color="red" route="r_2"/>
    <vehicle id="veh135" type="CarB" depart="0.00" color="green" route="r_2"/>
    <vehicle id="veh136" type="CarC" depart="0.00" color="blue" route="r_2"/>
    <vehicle id="veh137" type="CarD" depart="0.00" color="yellow" route="r_2"/>
    <vehicle id="veh138" type="CarA" depart="0.00" color="red" route="r_2"/>
    <vehicle id="veh139" type="CarB" depart="0.00" color="green" route="r_2"/>
    <vehicle id="veh14" type="CarC" depart="0.00" color="blue" route="r_1"/>
    <vehicle id="veh140" type="CarC" depart="0.00" color="blue" route="r_3"/>
    <vehicle id="veh141" type="CarD" depart="0.00" color="yellow" route="r_3"/>
    <vehicle id="veh142" type="CarA" depart="0.00" color="red" route="r_3"/>
    <vehicle id="veh143" type="CarB" depart="0.00" color="green" route="r_3"/>
    <vehicle id="veh144" type="CarC" depart="0.00" color="blue" route="r_3"/>
    <vehicle id="veh145" type="CarD" depart="0.00" color="yellow" route="r_3"/>
    <vehicle id="veh146" type="CarA" depart="0.00" color="red" route="r_3"/>
    <vehicle id="veh147" type="CarB" depart="0.00" color="green" route="r_3"/>
    <vehicle id="veh148" type="CarC" depart="0.00" color="blue" route="r_3"/>
    <vehicle id="veh149" type="CarD" depart="0.00" color="yellow" route="r_3"/>
    <vehicle id="veh15" type="CarD" depart="0.00" color="yellow" route="r_1"/>
    <vehicle id="veh150" type="CarA" depart="0.00" color="red" route="r_4"/>
    <vehicle id="veh151" type="CarB" depart="0.00" color="green" route="r_4"/>
    <vehicle id="veh152" type="CarC" depart="0.00" color="blue" route="r_4"/>
    <vehicle id="veh153" type="CarD" depart="0.00" color="yellow" route="r_4"/>
    <vehicle id="veh154" type="CarA" depart="0.00" color="red" route="r_4"/>
    <vehicle id="veh155" type="CarB" depart="0.00" color="green" route="r_4"/>
    <vehicle id="veh156" type="CarC" depart="0.00" color="blue" route="r_4"/>
    <vehicle id="veh157" type="CarD" depart="0.00" color="yellow" route="r_4"/>
    <vehicle id="veh158" type="CarA" depart="0.00" color="red" route="r_4"/>
    <vehicle id="veh159" type="CarB" depart="0.00" color="green" route="r_4"/>
    <vehicle id="veh16" type="CarA" depart="0.00" color="red" route="r_1"/>
    <vehicle id="veh160" type="CarC" depart="0.00" color="blue" route="r_5"/>
    <vehicle id="veh161" type="CarD" depart="0.00" color="yellow" route="r_5"/>
    <vehicle id="veh162" type="CarA" depart="0.00" color="red" route="r_5"/>
    <vehicle id="veh163" type="CarB" depart="0.00" color="green" route="r_5"/>
    <vehicle id="veh164" type="CarC" depart="0.00" color="blue" route="r_5"/>
    <vehicle id="veh165" type="CarD" depart="0.00" color="yellow" route="r_5"/>
    <vehicle id="veh166" type="CarA" depart="0.00" color="red" route="r_5"/>
    <vehicle id="veh167" type="CarB" depart="0.00" color="green" route="r_5"/>
    <vehicle id="veh168" type="CarC" depart="0.00" color="blue" route="r_5"/>
    <vehicle id="veh169" type="CarD" depart="0.00" color="yellow" route="r_5"/>
    <vehicle id="veh17" type="CarB" depart="0.00" color="green" route="r_1"/>
    <vehicle id="veh170" type="CarA" depart="0.00" color="red" route="r_6"/>
    <vehicle id="veh171" type="CarB" depart="0.00" color="green" route="r_6"/>
    <vehicle id="veh172" type="CarC" depart="0.00" color="blue" route="r_6"/>
    <vehicle id="veh173" type="CarD" depart="0.00" color="yellow" route="r_6"/>
    <vehicle id="veh174" type="CarA" depart="0.00" color="red" route="r_6"/>
    <vehicle id="veh175" type="CarB" depart="0.00" color="green" route="r_6"/>
    <vehicle id="veh176" type="CarC" depart="0.00" color="blue" route="r_6"/>
    <vehicle id="veh177" type="CarD" depart="0.00" color="yellow" route="r_6"/>
    <vehicle id="veh178" type="CarA" depart="0.00" color="red" route="r_6"/>
    <vehicle id="veh179" type="CarB" depart="0.00" color="green" route="r_6"/>
    <vehicle id="veh18" type="CarC" depart="0.00" color="blue" route="r_1"/>
    <vehicle id="veh180" type="CarC" depart="0.00" color="blue" route="r_7"/>
    <vehicle id="veh181" type="CarD" depart="0.00" color="yellow" route="r_7"/>
    <vehicle id="veh182" type="CarA" depart="0.00" color="red" route="r_7"/>
    <vehicle id="veh183" type="CarB" depart="0.00" color="green" route="r_7"/>
    <vehicle id="veh184" type="CarC" depart="0.00" color="blue" route="r_7"/>
    <vehicle id="veh185" type="CarD" depart="0.00" color="yellow" route="r_7"/>
    <vehicle id="veh186" type="CarA" depart="0.00" color="red" route="r_7"/>
    <vehicle id="veh187" type="CarB" depart="0.00" color="green" route="r_7"/>
    <vehicle id="veh188" type="CarC" depart="0.00" color="blue" route="r_7"/>
    <vehicle id="veh189" type="CarD" depart="0.00" color="yellow" route="r_7"/>
    <vehicle id="veh19" type="CarD" depart="0.00" color="yellow" route="r_1"/>
    <vehicle id="veh190" type="CarA" depart="0.00" color="red" route="r_8"/>
    <vehicle id="veh191" type="CarB" depart="0.00" color="green" route="r_8"/>
    <vehicle id="veh192" type="CarC" depart="0.00" color="blue" route="r_8"/>
    <vehicle id="veh193" type="CarD" depart="0.00" color="yellow" route="r_8"/>
    <vehicle id="veh194" type="CarA" depart="0.00" color="red" route="r_8"/>
    <vehicle id="veh195" type="CarB" depart="0.00" color="green" route="r_8"/>
    <vehicle id="veh196" type="CarC" depart="0.00" color="blue" route="r_8"/>
    <vehicle id="veh197" type="CarD" depart="0.00" color="yellow" route="r_8"/>
    <vehicle id="veh198" type="CarA" depart="0.00" color="red" route="r_8"/>
    <vehicle id="veh199" type="CarB" depart="0.00" color="green" route="r_8"/>
    <vehicle id="veh2" type="CarC" depart="0.00" color="blue" route="r_0"/>
    <vehicle id="veh20" type="CarA" depart="0.00" color="red" route="r_2"/>
    <vehicle id="veh21" type="CarB" depart="0.00" color="green" route="r_2"/>
    <vehicle id="veh22" type="CarC" depart="0.00" color="blue" route="r_2"/>
    <vehicle id="veh23" type="CarD" depart="0.00" color="yellow" route="r_2"/>
    <vehicle id="veh24" type="CarA" depart="0.00" color="red" route="r_2"/>
    <vehicle id="veh25" type="CarB" depart="0.00" color="green" route="r_2"/>
    <vehicle id="veh26" type="CarC" depart="0.00" color="blue" route="r_2"/>
    <vehicle id="veh27" type="CarD" depart="0.00" color="yellow" route="r_2"/>
    <vehicle id="veh28" type="CarA" depart="0.00" color="red" route="r_2"/>
    <vehicle id="veh29" type="CarB" depart="0.00" color="green" route="r_2"/>
    <vehicle id="veh3" type="CarD" depart="0.00" color="yellow" route="r_0"/>
    <vehicle id="veh30" type="CarC" depart="0.00" color="blue" route="r_3"/>
    <vehicle id="veh31" type="CarD" depart="0.00" color="yellow" route="r_3"/>
    <vehicle id="veh32" type="CarA" depart="0.00" color="red" route="r_3"/>
    <vehicle id="veh33" type="CarB" depart="0.00" color="green" route="r_3"/>
    <vehicle id="veh34" type="CarC" depart="0.00" color="blue" route="r_3"/>
    <vehicle id="veh35" type="CarD" depart="0.00" color="yellow" route="r_3"/>
    <vehicle id="veh36" type="CarA" depart="0.00" color="red" route="r_3"/>
    <vehicle id="veh37" type="CarB" depart="0.00" color="green" route="r_3"/>
    <vehicle id="veh38" type="CarC" depart="0.00" color="blue" route="r_3"/>
    <vehicle id="veh39" type="CarD" depart="0.00" color="yellow" route="r_3"/>
    <vehicle id="veh4" type="CarA" depart="0.00" color="red" route="r_0"/>
    <vehicle id="veh40" type="CarA" depart="0.00" color="red" route="r_4"/>
    <vehicle id="veh41" type="CarB" depart="0.00" color="green" route="r_4"/>
    <vehicle id="veh42" type="CarC" depart="0.00" color="blue" route="r_4"/>
    <vehicle id="veh43" type="CarD" depart="0.00" color="yellow" route="r_4"/>
    <vehicle id="veh44" type="CarA" depart="0.00" color="red" route="r_4"/>
    <vehicle id="veh45" type="CarB" depart="0.00" color="green" route="r_4"/>
    <vehicle id="veh46" type="CarC" depart="0.00" color="blue" route="r_4"/>
    <vehicle id="veh47" type="CarD" depart="0.00" color="yellow" route="r_4"/>
    <vehicle id="veh48" type="CarA" depart="0.00" color="red" route="r_4"/>
    <vehicle id="veh49" type="CarB" depart="0.00" color="green" route="r_4"/>
    <vehicle id="veh5" type="CarB" depart="0.00" color="green" route="r_0"/>
    <vehicle id="veh50" type="CarC" depart="0.00" color="blue" route="r_5"/>
    <vehicle id="veh51" type="CarD" depart="0.00" color="yellow" route="r_5"/>
    <vehicle id="veh52" type="CarA" depart="0.00" color="red" route="r_5"/>
    <vehicle id="veh53" type="CarB" depart="0.00" color="green" route="r_5"/>
    <vehicle id="veh54" type="CarC" depart="0.00" color="blue" route="r_5"/>
    <vehicle id="veh55" type="CarD" depart="0.00" color="yellow" route="r_5"/>
    <vehicle id="veh56" type="CarA" depart="0.00" color="red" route="r_5"/>
    <vehicle id="veh57" type="CarB" depart="0.00" color="green" route="r_5"/>
    <vehicle id="veh58" type="CarC" depart="0.00" color="blue" route="r_5"/>
    <vehicle id="veh59" type="CarD" depart="0.00" color="yellow" route="r_5"/>
    <vehicle id="veh6" type="CarC" depart="0.00" color="blue" route="r_0"/>
    <vehicle id="veh60" type="CarA" depart="0.00" color="red" route="r_6"/>
    <vehicle id="veh61" type="CarB" depart="0.00" color="green" route="r_6"/>
    <vehicle id="veh62" type="CarC" depart="0.00" color="blue" route="r_6"/>
    <vehicle id="veh63" type="CarD" depart="0.00" color="yellow" route="r_6"/>
    <vehicle id="veh64" type="CarA" depart="0.00" color="red" route="r_6"/>
    <vehicle id="veh65" type="CarB" depart="0.00" color="green" route="r_6"/>
    <vehicle id="veh66" type="CarC" depart="0.00" color="blue" route="r_6"/>
    <vehicle id="veh67" type="CarD" depart="0.00" color="yellow" route="r_6"/>
    <vehicle id="veh68" type="CarA" depart="0.00" color="red" route="r_6"/>
    <vehicle id="veh69" type="CarB" depart="0.00" color="green" route="r_6"/>
    <vehicle id="veh7" type="CarD" depart="0.00" color="yellow" route="r_0"/>
    <vehicle id="veh70" type="CarC" depart="0.00" color="blue" route="r_7"/>
    <vehicle id="veh71" type="CarD" depart="0.00" color="yellow" route="r_7"/>
    <vehicle id="veh72" type="CarA" depart="0.00" color="red" route="r_7"/>
    <vehicle id="veh73" type="CarB" depart="0.00" color="green" route="r_7"/>
    <vehicle id="veh74" type="CarC" depart="0.00" color="blue" route="r_7"/>
    <vehicle id="veh75" type="CarD" depart="0.00" color="yellow" route="r_7"/>
    <vehicle id="veh76" type="CarA" depart="0.00" color="red" route="r_7"/>
    <vehicle id="veh77" type="CarB" depart="0.00" color="green" route="r_7"/>
    <vehicle id="veh78" type="CarC" depart="0.00" color="blue" route="r_7"/>
    <vehicle id="veh79" type="CarD" depart="0.00" color="yellow" route="r_7"/>
    <vehicle id="veh8" type="CarA" depart="0.00" color="red" route="r_0"/>
    <vehicle id="veh80" type="CarA" depart="0.00" color="red" route="r_8"/>
    <vehicle id="veh81" type="CarB" depart="0.00" color="green" route="r_8"/>
    <vehicle id="veh82" type="CarC" depart="0.00" color="blue" route="r_8"/>
    <vehicle id="veh83" type="CarD" depart="0.00" color="yellow" route="r_8"/>
    <vehicle id="veh84" type="CarA" depart="0.00" color="red" route="r_8"/>
    <vehicle id="veh85" type="CarB" depart="0.00" color="green" route="r_8"/>
    <vehicle id="veh86" type="CarC" depart="0.00" color="blue" route="r_8"/>
    <vehicle id="veh87" type="CarD" depart="0.00" color="yellow" route="r_8"/>
    <vehicle id="veh88" type="CarA" depart="0.00" color="red" route="r_8"/>
    <vehicle id="veh89" type="CarB" depart="0.00" color="green" route="r_8"/>
    <vehicle id="veh9" type="CarB" depart="0.00" color="green" route="r_0"/>
    <vehicle id="veh90" type="CarC" depart="0.00" color="blue" route="r_9"/>
    <vehicle id="veh91" type="CarD" depart="0.00" color="yellow" route="r_9"/>
    <vehicle id="veh92" type="CarA" depart="0.00" color="red" route="r_9"/>
    <vehicle id="veh93" type="CarB" depart="0.00" color="green" route="r_9"/>
    <vehicle id="veh94" type="CarC" depart="0.00" color="blue" route="r_9"/>
    <vehicle id="veh95" type="CarD" depart="0.00" color="yellow" route="r_9"/>
    <vehicle id="veh96" type="CarA" depart="0.00" color="red" route="r_9"/>
    <vehicle id="veh97" type="CarB" depart="0.00" color="green" route="r_9"/>
    <vehicle id="veh98" type="CarC" depart="0.00" color="blue" route="r_9"/>
    <vehicle id="veh99" type="CarD" depart="0.00" color="yellow" route="r_9"/>
</routes>
