<?xml version="1.0" encoding="UTF-8"?>

<!-- generated on 2024-06-13 15:06:09 by Eclipse SUMO netedit Version 1.20.0
<configuration xmlns:xsi="http://www.w3.org/2001/XMLSchema-instance" xsi:noNamespaceSchemaLocation="http://sumo.dlr.de/xsd/neteditConfiguration.xsd">

    <input>
        <route-files value="D:\SUMO\paquete de simulacion SUMO\noRotonda\rutas.rou.xml"/>
        <sumo-net-file value="D:\SUMO\paquete de simulacion SUMO\noRotonda\noRotonda.net.xml"/>
    </input>

    <output>
        <output-file value="D:\SUMO\paquete de simulacion SUMO\noRotonda\noRotonda.net.xml"/>
    </output>

    <processing>
        <geometry.min-radius.fix.railways value="false"/>
        <geometry.max-grade.fix value="false"/>
        <offset.disable-normalization value="true"/>
        <lefthand value="0"/>
    </processing>

    <junctions>
        <no-turnarounds value="true"/>
        <junctions.corner-detail value="5"/>
        <junctions.limit-turn-speed value="5.50"/>
        <rectangular-lane-cut value="0"/>
    </junctions>

    <pedestrian>
        <walkingareas value="0"/>
    </pedestrian>

</configuration>
-->

<net version="1.20" junctionCornerDetail="5" limitTurnSpeed="5.50" xmlns:xsi="http://www.w3.org/2001/XMLSchema-instance" xsi:noNamespaceSchemaLocation="http://sumo.dlr.de/xsd/net_file.xsd">

    <location netOffset="0.00,0.00" convBoundary="0.00,-137.50,275.00,137.50" origBoundary="-10000000000.00,-10000000000.00,10000000000.00,10000000000.00" projParameter="!"/>

    <edge id=":J1_0" function="internal">
        <lane id=":J1_0_0" index="0" speed="6.51" length="9.03" shape="132.70,10.40 132.35,7.95 131.30,6.20 129.55,5.15 127.10,4.80"/>
    </edge>
    <edge id=":J1_1" function="internal">
        <lane id=":J1_1_0" index="0" speed="13.89" length="20.80" shape="132.70,10.40 132.70,-10.40"/>
    </edge>
    <edge id=":J1_2" function="internal">
        <lane id=":J1_2_0" index="0" speed="10.10" length="5.43" shape="132.70,10.40 134.03,5.14"/>
    </edge>
    <edge id=":J1_3" function="internal">
        <lane id=":J1_3_0" index="0" speed="8.00" length="4.07" shape="135.90,10.40 135.35,6.55 135.26,6.40"/>
    </edge>
    <edge id=":J1_4" function="internal">
        <lane id=":J1_4_0" index="0" speed="13.89" length="20.80" shape="135.90,10.40 135.90,-10.40"/>
    </edge>
    <edge id=":J1_5" function="internal">
        <lane id=":J1_5_0" index="0" speed="9.02" length="2.96" shape="135.90,10.40 136.63,7.53"/>
    </edge>
    <edge id=":J1_6" function="internal">
        <lane id=":J1_6_0" index="0" speed="3.65" length="1.44" shape="135.90,10.40 136.70,9.20"/>
    </edge>
    <edge id=":J1_28" function="internal">
        <lane id=":J1_28_0" index="0" speed="10.10" length="17.79" shape="134.03,5.14 134.07,5.00 137.61,0.11 142.50,-3.43 147.90,-4.80"/>
    </edge>
    <edge id=":J1_29" function="internal">
        <lane id=":J1_29_0" index="0" speed="8.00" length="10.13" shape="135.26,6.40 133.70,3.80 130.95,2.15 127.10,1.60"/>
    </edge>
    <edge id=":J1_30" function="internal">
        <lane id=":J1_30_0" index="0" speed="9.02" length="15.37" shape="136.63,7.53 136.98,6.14 139.78,2.28 143.64,-0.52 147.90,-1.60"/>
    </edge>
    <edge id=":J1_31" function="internal">
        <lane id=":J1_31_0" index="0" speed="3.65" length="3.23" shape="136.70,9.20 137.50,8.80 138.30,9.20 139.10,10.40"/>
    </edge>
    <edge id=":J1_7" function="internal">
        <lane id=":J1_7_0" index="0" speed="6.51" length="9.03" shape="147.90,4.80 145.45,5.15 143.70,6.20 142.65,7.95 142.30,10.40"/>
    </edge>
    <edge id=":J1_8" function="internal">
        <lane id=":J1_8_0" index="0" speed="13.89" length="20.80" shape="147.90,4.80 127.10,4.80"/>
    </edge>
    <edge id=":J1_9" function="internal">
        <lane id=":J1_9_0" index="0" speed="10.10" length="23.22" shape="147.90,4.80 142.50,3.43 137.61,-0.11 134.07,-5.00 132.70,-10.40"/>
    </edge>
    <edge id=":J1_10" function="internal">
        <lane id=":J1_10_0" index="0" speed="8.00" length="14.19" shape="147.90,1.60 144.05,2.15 141.30,3.80 139.65,6.55 139.10,10.40"/>
    </edge>
    <edge id=":J1_11" function="internal">
        <lane id=":J1_11_0" index="0" speed="13.89" length="20.80" shape="147.90,1.60 127.10,1.60"/>
    </edge>
    <edge id=":J1_12" function="internal">
        <lane id=":J1_12_0" index="0" speed="9.02" length="18.33" shape="147.90,1.60 143.64,0.52 139.78,-2.28 136.98,-6.14 135.90,-10.40"/>
    </edge>
    <edge id=":J1_13" function="internal">
        <lane id=":J1_13_0" index="0" speed="3.65" length="4.67" shape="147.90,1.60 146.70,0.80 146.30,0.00 146.70,-0.80 147.90,-1.60"/>
    </edge>
    <edge id=":J1_14" function="internal">
        <lane id=":J1_14_0" index="0" speed="6.51" length="9.03" shape="142.30,-10.40 142.65,-7.95 143.70,-6.20 145.45,-5.15 147.90,-4.80"/>
    </edge>
    <edge id=":J1_15" function="internal">
        <lane id=":J1_15_0" index="0" speed="13.89" length="20.80" shape="142.30,-10.40 142.30,10.40"/>
    </edge>
    <edge id=":J1_16" function="internal">
        <lane id=":J1_16_0" index="0" speed="10.10" length="5.43" shape="142.30,-10.40 140.97,-5.14"/>
    </edge>
    <edge id=":J1_17" function="internal">
        <lane id=":J1_17_0" index="0" speed="8.00" length="4.07" shape="139.10,-10.40 139.65,-6.55 139.74,-6.40"/>
    </edge>
    <edge id=":J1_18" function="internal">
        <lane id=":J1_18_0" index="0" speed="13.89" length="20.80" shape="139.10,-10.40 139.10,10.40"/>
    </edge>
    <edge id=":J1_19" function="internal">
        <lane id=":J1_19_0" index="0" speed="9.02" length="2.96" shape="139.10,-10.40 138.37,-7.53"/>
    </edge>
    <edge id=":J1_20" function="internal">
        <lane id=":J1_20_0" index="0" speed="3.65" length="1.44" shape="139.10,-10.40 138.30,-9.20"/>
    </edge>
    <edge id=":J1_32" function="internal">
        <lane id=":J1_32_0" index="0" speed="10.10" length="17.79" shape="140.97,-5.14 140.93,-5.00 137.39,-0.11 132.50,3.43 127.10,4.80"/>
    </edge>
    <edge id=":J1_33" function="internal">
        <lane id=":J1_33_0" index="0" speed="8.00" length="10.13" shape="139.74,-6.40 141.30,-3.80 144.05,-2.15 147.90,-1.60"/>
    </edge>
    <edge id=":J1_34" function="internal">
        <lane id=":J1_34_0" index="0" speed="9.02" length="15.37" shape="138.37,-7.53 138.02,-6.14 135.22,-2.28 131.36,0.52 127.10,1.60"/>
    </edge>
    <edge id=":J1_35" function="internal">
        <lane id=":J1_35_0" index="0" speed="3.65" length="3.23" shape="138.30,-9.20 137.50,-8.80 136.70,-9.20 135.90,-10.40"/>
    </edge>
    <edge id=":J1_21" function="internal">
        <lane id=":J1_21_0" index="0" speed="6.51" length="9.03" shape="127.10,-4.80 129.55,-5.15 131.30,-6.20 132.35,-7.95 132.70,-10.40"/>
    </edge>
    <edge id=":J1_22" function="internal">
        <lane id=":J1_22_0" index="0" speed="13.89" length="20.80" shape="127.10,-4.80 147.90,-4.80"/>
    </edge>
    <edge id=":J1_23" function="internal">
        <lane id=":J1_23_0" index="0" speed="10.10" length="23.22" shape="127.10,-4.80 132.50,-3.43 137.39,0.11 140.93,5.00 142.30,10.40"/>
    </edge>
    <edge id=":J1_24" function="internal">
        <lane id=":J1_24_0" index="0" speed="8.00" length="14.19" shape="127.10,-1.60 130.95,-2.15 133.70,-3.80 135.35,-6.55 135.90,-10.40"/>
    </edge>
    <edge id=":J1_25" function="internal">
        <lane id=":J1_25_0" index="0" speed="13.89" length="20.80" shape="127.10,-1.60 147.90,-1.60"/>
    </edge>
    <edge id=":J1_26" function="internal">
        <lane id=":J1_26_0" index="0" speed="9.02" length="18.33" shape="127.10,-1.60 131.36,-0.52 135.22,2.28 138.02,6.14 139.10,10.40"/>
    </edge>
    <edge id=":J1_27" function="internal">
        <lane id=":J1_27_0" index="0" speed="3.65" length="4.67" shape="127.10,-1.60 128.30,-0.80 128.70,0.00 128.30,0.80 127.10,1.60"/>
    </edge>
    <edge id=":J10_0" function="internal">
        <lane id=":J10_0_0" index="0" speed="13.89" length="0.10" shape="109.88,4.80 109.88,4.80"/>
        <lane id=":J10_0_1" index="1" speed="13.89" length="0.10" shape="109.88,1.60 109.88,1.60"/>
    </edge>
    <edge id=":J10_2" function="internal">
        <lane id=":J10_2_0" index="0" speed="13.89" length="0.10" shape="109.88,-4.80 109.88,-4.80"/>
        <lane id=":J10_2_1" index="1" speed="13.89" length="0.10" shape="109.88,-1.60 109.88,-1.60"/>
    </edge>
    <edge id=":J11_0" function="internal">
        <lane id=":J11_0_0" index="0" speed="13.89" length="0.10" shape="160.00,4.80 160.00,4.80"/>
        <lane id=":J11_0_1" index="1" speed="13.89" length="0.10" shape="160.00,1.60 160.00,1.60"/>
    </edge>
    <edge id=":J11_2" function="internal">
        <lane id=":J11_2_0" index="0" speed="13.89" length="0.10" shape="160.00,-4.80 160.00,-4.80"/>
        <lane id=":J11_2_1" index="1" speed="13.89" length="0.10" shape="160.00,-1.60 160.00,-1.60"/>
    </edge>
    <edge id=":J13_0" function="internal">
        <lane id=":J13_0_0" index="0" speed="13.89" length="0.10" shape="132.70,-25.00 132.70,-25.00"/>
        <lane id=":J13_0_1" index="1" speed="13.89" length="0.10" shape="135.90,-25.00 135.90,-25.00"/>
    </edge>
    <edge id=":J13_2" function="internal">
        <lane id=":J13_2_0" index="0" speed="13.89" length="0.10" shape="142.30,-25.00 142.30,-25.00"/>
        <lane id=":J13_2_1" index="1" speed="13.89" length="0.10" shape="139.10,-25.00 139.10,-25.00"/>
    </edge>
    <edge id=":J15_0" function="internal">
        <lane id=":J15_0_0" index="0" speed="13.89" length="0.10" shape="132.70,25.00 132.70,25.00"/>
        <lane id=":J15_0_1" index="1" speed="13.89" length="0.10" shape="135.90,25.00 135.90,25.00"/>
    </edge>
    <edge id=":J15_2" function="internal">
        <lane id=":J15_2_0" index="0" speed="13.89" length="0.10" shape="142.30,25.00 142.30,25.00"/>
        <lane id=":J15_2_1" index="1" speed="13.89" length="0.10" shape="139.10,25.00 139.10,25.00"/>
    </edge>

    <edge id="-E10" from="J10" to="J0" priority="-1">
        <lane id="-E10_0" index="0" speed="13.89" length="109.88" shape="109.88,4.80 -0.00,4.80"/>
        <lane id="-E10_1" index="1" speed="13.89" length="109.88" shape="109.88,1.60 -0.00,1.60"/>
    </edge>
    <edge id="-E11" from="J12" to="J11" priority="-1">
        <lane id="-E11_0" index="0" speed="13.89" length="115.00" shape="275.00,4.80 160.00,4.80"/>
        <lane id="-E11_1" index="1" speed="13.89" length="115.00" shape="275.00,1.60 160.00,1.60"/>
    </edge>
    <edge id="-E12" from="J14" to="J13" priority="-1">
        <lane id="-E12_0" index="0" speed="13.89" length="112.50" shape="142.30,-137.50 142.30,-25.00"/>
        <lane id="-E12_1" index="1" speed="13.89" length="112.50" shape="139.10,-137.50 139.10,-25.00"/>
    </edge>
    <edge id="-E13" from="J16" to="J15" priority="-1">
        <lane id="-E13_0" index="0" speed="13.89" length="112.50" shape="132.70,137.50 132.70,25.00"/>
        <lane id="-E13_1" index="1" speed="13.89" length="112.50" shape="135.90,137.50 135.90,25.00"/>
    </edge>
    <edge id="-E3" from="J15" to="J1" priority="-1">
        <lane id="-E3_0" index="0" speed="13.89" length="14.60" shape="132.70,25.00 132.70,10.40"/>
        <lane id="-E3_1" index="1" speed="13.89" length="14.60" shape="135.90,25.00 135.90,10.40"/>
    </edge>
    <edge id="-E4" from="J13" to="J1" priority="-1">
        <lane id="-E4_0" index="0" speed="13.89" length="14.60" shape="142.30,-25.00 142.30,-10.40"/>
        <lane id="-E4_1" index="1" speed="13.89" length="14.60" shape="139.10,-25.00 139.10,-10.40"/>
    </edge>
    <edge id="-E5" from="J1" to="J11" priority="-1">
        <lane id="-E5_0" index="0" speed="13.89" length="12.10" shape="147.90,-4.80 160.00,-4.80"/>
        <lane id="-E5_1" index="1" speed="13.89" length="12.10" shape="147.90,-1.60 160.00,-1.60"/>
    </edge>
    <edge id="-E6" from="J1" to="J10" priority="-1">
        <lane id="-E6_0" index="0" speed="13.89" length="17.22" shape="127.10,4.80 109.88,4.80"/>
        <lane id="-E6_1" index="1" speed="13.89" length="17.22" shape="127.10,1.60 109.88,1.60"/>
    </edge>
    <edge id="E10" from="J0" to="J10" priority="-1">
        <lane id="E10_0" index="0" speed="13.89" length="109.88" shape="-0.00,-4.80 109.88,-4.80"/>
        <lane id="E10_1" index="1" speed="13.89" length="109.88" shape="-0.00,-1.60 109.88,-1.60"/>
    </edge>
    <edge id="E11" from="J11" to="J12" priority="-1">
        <lane id="E11_0" index="0" speed="13.89" length="115.00" shape="160.00,-4.80 275.00,-4.80"/>
        <lane id="E11_1" index="1" speed="13.89" length="115.00" shape="160.00,-1.60 275.00,-1.60"/>
    </edge>
    <edge id="E12" from="J13" to="J14" priority="-1">
        <lane id="E12_0" index="0" speed="13.89" length="112.50" shape="132.70,-25.00 132.70,-137.50"/>
        <lane id="E12_1" index="1" speed="13.89" length="112.50" shape="135.90,-25.00 135.90,-137.50"/>
    </edge>
    <edge id="E13" from="J15" to="J16" priority="-1">
        <lane id="E13_0" index="0" speed="13.89" length="112.50" shape="142.30,25.00 142.30,137.50"/>
        <lane id="E13_1" index="1" speed="13.89" length="112.50" shape="139.10,25.00 139.10,137.50"/>
    </edge>
    <edge id="E3" from="J1" to="J15" priority="-1">
        <lane id="E3_0" index="0" speed="13.89" length="14.60" shape="142.30,10.40 142.30,25.00"/>
        <lane id="E3_1" index="1" speed="13.89" length="14.60" shape="139.10,10.40 139.10,25.00"/>
    </edge>
    <edge id="E4" from="J1" to="J13" priority="-1">
        <lane id="E4_0" index="0" speed="13.89" length="14.60" shape="132.70,-10.40 132.70,-25.00"/>
        <lane id="E4_1" index="1" speed="13.89" length="14.60" shape="135.90,-10.40 135.90,-25.00"/>
    </edge>
    <edge id="E5" from="J11" to="J1" priority="-1">
        <lane id="E5_0" index="0" speed="13.89" length="12.10" shape="160.00,4.80 147.90,4.80"/>
        <lane id="E5_1" index="1" speed="13.89" length="12.10" shape="160.00,1.60 147.90,1.60"/>
    </edge>
    <edge id="E6" from="J10" to="J1" priority="-1">
        <lane id="E6_0" index="0" speed="13.89" length="17.22" shape="109.88,-4.80 127.10,-4.80"/>
        <lane id="E6_1" index="1" speed="13.89" length="17.22" shape="109.88,-1.60 127.10,-1.60"/>
    </edge>

    <junction id="J0" type="dead_end" x="0.00" y="0.00" incLanes="-E10_0 -E10_1" intLanes="" shape="-0.00,0.00 -0.00,6.40 -0.00,0.00"/>
    <junction id="J1" type="priority" x="137.50" y="0.00" incLanes="-E3_0 -E3_1 E5_0 E5_1 -E4_0 -E4_1 E6_0 E6_1" intLanes=":J1_0_0 :J1_1_0 :J1_28_0 :J1_29_0 :J1_4_0 :J1_30_0 :J1_31_0 :J1_7_0 :J1_8_0 :J1_9_0 :J1_10_0 :J1_11_0 :J1_12_0 :J1_13_0 :J1_14_0 :J1_15_0 :J1_32_0 :J1_33_0 :J1_18_0 :J1_34_0 :J1_35_0 :J1_21_0 :J1_22_0 :J1_23_0 :J1_24_0 :J1_25_0 :J1_26_0 :J1_27_0" shape="131.10,10.40 143.90,10.40 144.34,8.18 144.90,7.40 145.68,6.84 146.68,6.51 147.90,6.40 147.90,-6.40 145.68,-6.84 144.90,-7.40 144.34,-8.18 144.01,-9.18 143.90,-10.40 131.10,-10.40 130.66,-8.18 130.10,-7.40 129.32,-6.84 128.32,-6.51 127.10,-6.40 127.10,6.40 129.32,6.84 130.10,7.40 130.66,8.18 130.99,9.18">
        <request index="0"  response="0000000000000000000000000000" foes="1000000010010000100100000000" cont="0"/>
        <request index="1"  response="0000000000000000000000000000" foes="0111111110010001101100001000" cont="0"/>
        <request index="2"  response="0000000001111100000000010000" foes="0110110001111111101100011000" cont="1"/>
        <request index="3"  response="0000000000000000000000000110" foes="1000000010010000100100000110" cont="1"/>
        <request index="4"  response="0000000000000000000000000000" foes="0111111110010001101100000100" cont="0"/>
        <request index="5"  response="0000000001101100000000000000" foes="0110110001101111101100000000" cont="1"/>
        <request index="6"  response="0100100001001000010010000000" foes="0100100001001000010010000000" cont="1"/>
        <request index="7"  response="0000000001001000000000000000" foes="0100100001001000000001000000" cont="0"/>
        <request index="8"  response="0000000011011000000000111111" foes="1100100011011000010000111111" cont="0"/>
        <request index="9"  response="0011111011011000100000110110" foes="0011111111011000110000110110" cont="0"/>
        <request index="10" response="0000000001001000001100000000" foes="0100100001001000001101000000" cont="0"/>
        <request index="11" response="0000000011011000000000111111" foes="1100100011011000001000111111" cont="0"/>
        <request index="12" response="0011011011011000000000110110" foes="0011011111011000000000110110" cont="0"/>
        <request index="13" response="0010010000100100000000100100" foes="0010010000100100000000100100" cont="0"/>
        <request index="14" response="0000000000000000000000000000" foes="0010010000000010000000100100" cont="0"/>
        <request index="15" response="0000000000000000000000000000" foes="0110110000100001111111100100" cont="0"/>
        <request index="16" response="0000000001000000000000011011" foes="1110110001100001101100011111" cont="1"/>
        <request index="17" response="0000000000011000000000000000" foes="0010010000011010000000100100" cont="1"/>
        <request index="18" response="0000000000000000000000000000" foes="0110110000010001111111100100" cont="0"/>
        <request index="19" response="0000000000000000000000011011" foes="1110110000000001101100011011" cont="1"/>
        <request index="20" response="0001001000000001001000010010" foes="0001001000000001001000010010" cont="1"/>
        <request index="21" response="0000000000000000000000010010" foes="0000000100000001001000010010" cont="0"/>
        <request index="22" response="0000000011111100000000110110" foes="0001000011111111001000110110" cont="0"/>
        <request index="23" response="0010000011011000110110110110" foes="0011000011011000111111110110" cont="0"/>
        <request index="24" response="0000110000000000000000010010" foes="0000110100000001001000010010" cont="0"/>
        <request index="25" response="0000000011111100000000110110" foes="0000100011111111001000110110" cont="0"/>
        <request index="26" response="0000000011011000110110110110" foes="0000000011011000110111110110" cont="0"/>
        <request index="27" response="0000000010010000100100001001" foes="0000000010010000100100001001" cont="0"/>
    </junction>
    <junction id="J10" type="priority" x="109.88" y="0.00" incLanes="-E6_0 -E6_1 E10_0 E10_1" intLanes=":J10_0_0 :J10_0_1 :J10_2_0 :J10_2_1" shape="109.88,6.40 109.88,-6.40 109.88,6.40">
        <request index="0" response="0000" foes="0000" cont="0"/>
        <request index="1" response="0000" foes="0000" cont="0"/>
        <request index="2" response="0000" foes="0000" cont="0"/>
        <request index="3" response="0000" foes="0000" cont="0"/>
    </junction>
    <junction id="J11" type="priority" x="160.00" y="0.00" incLanes="-E11_0 -E11_1 -E5_0 -E5_1" intLanes=":J11_0_0 :J11_0_1 :J11_2_0 :J11_2_1" shape="160.00,6.40 160.00,-6.40 160.00,6.40">
        <request index="0" response="0000" foes="0000" cont="0"/>
        <request index="1" response="0000" foes="0000" cont="0"/>
        <request index="2" response="0000" foes="0000" cont="0"/>
        <request index="3" response="0000" foes="0000" cont="0"/>
    </junction>
    <junction id="J12" type="dead_end" x="275.00" y="0.00" incLanes="E11_0 E11_1" intLanes="" shape="275.00,0.00 275.00,-6.40 275.00,0.00"/>
    <junction id="J13" type="priority" x="137.50" y="-25.00" incLanes="E4_0 E4_1 -E12_0 -E12_1" intLanes=":J13_0_0 :J13_0_1 :J13_2_0 :J13_2_1" shape="131.10,-25.00 143.90,-25.00 131.10,-25.00">
        <request index="0" response="0000" foes="0000" cont="0"/>
        <request index="1" response="0000" foes="0000" cont="0"/>
        <request index="2" response="0000" foes="0000" cont="0"/>
        <request index="3" response="0000" foes="0000" cont="0"/>
    </junction>
    <junction id="J14" type="dead_end" x="137.50" y="-137.50" incLanes="E12_0 E12_1" intLanes="" shape="137.50,-137.50 131.10,-137.50 137.50,-137.50"/>
    <junction id="J15" type="priority" x="137.50" y="25.00" incLanes="-E13_0 -E13_1 E3_0 E3_1" intLanes=":J15_0_0 :J15_0_1 :J15_2_0 :J15_2_1" shape="131.10,25.00 143.90,25.00 131.10,25.00">
        <request index="0" response="0000" foes="0000" cont="0"/>
        <request index="1" response="0000" foes="0000" cont="0"/>
        <request index="2" response="0000" foes="0000" cont="0"/>
        <request index="3" response="0000" foes="0000" cont="0"/>
    </junction>
    <junction id="J16" type="dead_end" x="137.50" y="137.50" incLanes="E13_0 E13_1" intLanes="" shape="137.50,137.50 143.90,137.50 137.50,137.50"/>

    <junction id=":J1_28_0" type="internal" x="134.03" y="5.14" incLanes=":J1_2_0 -E4_0 -E4_1 :J1_16_0" intLanes=":J1_32_0 :J1_4_0 :J1_8_0 :J1_9_0 :J1_11_0 :J1_12_0 :J1_13_0 :J1_14_0 :J1_15_0 :J1_16_0 :J1_17_0 :J1_18_0 :J1_22_0 :J1_23_0 :J1_25_0 :J1_26_0"/>
    <junction id=":J1_29_0" type="internal" x="135.26" y="6.40" incLanes=":J1_3_0 -E3_0" intLanes=":J1_1_0 :J1_2_0 :J1_8_0 :J1_11_0 :J1_16_0 :J1_19_0 :J1_27_0"/>
    <junction id=":J1_30_0" type="internal" x="136.63" y="7.53" incLanes=":J1_5_0 -E4_0 -E4_1" intLanes=":J1_8_0 :J1_9_0 :J1_11_0 :J1_12_0 :J1_13_0 :J1_14_0 :J1_15_0 :J1_17_0 :J1_18_0 :J1_22_0 :J1_23_0 :J1_25_0 :J1_26_0"/>
    <junction id=":J1_31_0" type="internal" x="136.70" y="9.20" incLanes=":J1_6_0 -E4_0 -E4_1 E5_0 E5_1 E6_0 E6_1" intLanes=":J1_7_0 :J1_10_0 :J1_15_0 :J1_18_0 :J1_23_0 :J1_26_0"/>
    <junction id=":J1_32_0" type="internal" x="140.97" y="-5.14" incLanes=":J1_16_0 -E3_0 -E3_1" intLanes=":J1_0_0 :J1_1_0 :J1_2_0 :J1_3_0 :J1_4_0 :J1_8_0 :J1_9_0 :J1_11_0 :J1_12_0 :J1_18_0 :J1_22_0 :J1_23_0 :J1_25_0 :J1_26_0 :J1_27_0"/>
    <junction id=":J1_33_0" type="internal" x="139.74" y="-6.40" incLanes=":J1_17_0 -E4_0" intLanes=":J1_2_0 :J1_5_0 :J1_13_0 :J1_15_0 :J1_16_0 :J1_22_0 :J1_25_0"/>
    <junction id=":J1_34_0" type="internal" x="138.37" y="-7.53" incLanes=":J1_19_0 -E3_0 -E3_1" intLanes=":J1_0_0 :J1_1_0 :J1_3_0 :J1_4_0 :J1_8_0 :J1_9_0 :J1_11_0 :J1_12_0 :J1_22_0 :J1_23_0 :J1_25_0 :J1_26_0 :J1_27_0"/>
    <junction id=":J1_35_0" type="internal" x="138.30" y="-9.20" incLanes=":J1_20_0 -E3_0 -E3_1 E5_0 E5_1 E6_0 E6_1" intLanes=":J1_1_0 :J1_4_0 :J1_9_0 :J1_12_0 :J1_21_0 :J1_24_0"/>

    <connection from="-E11" to="E5" fromLane="0" toLane="0" via=":J11_0_0" dir="s" state="M"/>
    <connection from="-E11" to="E5" fromLane="1" toLane="1" via=":J11_0_1" dir="s" state="M"/>
    <connection from="-E12" to="-E4" fromLane="0" toLane="0" via=":J13_2_0" dir="s" state="M"/>
    <connection from="-E12" to="-E4" fromLane="1" toLane="1" via=":J13_2_1" dir="s" state="M"/>
    <connection from="-E13" to="-E3" fromLane="0" toLane="0" via=":J15_0_0" dir="s" state="M"/>
    <connection from="-E13" to="-E3" fromLane="1" toLane="1" via=":J15_0_1" dir="s" state="M"/>
    <connection from="-E3" to="-E6" fromLane="0" toLane="0" via=":J1_0_0" dir="r" state="M"/>
    <connection from="-E3" to="E4" fromLane="0" toLane="0" via=":J1_1_0" dir="s" state="M"/>
    <connection from="-E3" to="-E5" fromLane="0" toLane="0" via=":J1_2_0" dir="l" state="m"/>
    <connection from="-E3" to="-E6" fromLane="1" toLane="1" via=":J1_3_0" dir="r" state="m"/>
    <connection from="-E3" to="E4" fromLane="1" toLane="1" via=":J1_4_0" dir="s" state="M"/>
    <connection from="-E3" to="-E5" fromLane="1" toLane="1" via=":J1_5_0" dir="l" state="m"/>
    <connection from="-E3" to="E3" fromLane="1" toLane="1" via=":J1_6_0" dir="t" state="m"/>
    <connection from="-E4" to="-E5" fromLane="0" toLane="0" via=":J1_14_0" dir="r" state="M"/>
    <connection from="-E4" to="E3" fromLane="0" toLane="0" via=":J1_15_0" dir="s" state="M"/>
    <connection from="-E4" to="-E6" fromLane="0" toLane="0" via=":J1_16_0" dir="l" state="m"/>
    <connection from="-E4" to="-E5" fromLane="1" toLane="1" via=":J1_17_0" dir="r" state="m"/>
    <connection from="-E4" to="E3" fromLane="1" toLane="1" via=":J1_18_0" dir="s" state="M"/>
    <connection from="-E4" to="-E6" fromLane="1" toLane="1" via=":J1_19_0" dir="l" state="m"/>
    <connection from="-E4" to="E4" fromLane="1" toLane="1" via=":J1_20_0" dir="t" state="m"/>
    <connection from="-E5" to="E11" fromLane="0" toLane="0" via=":J11_2_0" dir="s" state="M"/>
    <connection from="-E5" to="E11" fromLane="1" toLane="1" via=":J11_2_1" dir="s" state="M"/>
    <connection from="-E6" to="-E10" fromLane="0" toLane="0" via=":J10_0_0" dir="s" state="M"/>
    <connection from="-E6" to="-E10" fromLane="1" toLane="1" via=":J10_0_1" dir="s" state="M"/>
    <connection from="E10" to="E6" fromLane="0" toLane="0" via=":J10_2_0" dir="s" state="M"/>
    <connection from="E10" to="E6" fromLane="1" toLane="1" via=":J10_2_1" dir="s" state="M"/>
    <connection from="E3" to="E13" fromLane="0" toLane="0" via=":J15_2_0" dir="s" state="M"/>
    <connection from="E3" to="E13" fromLane="1" toLane="1" via=":J15_2_1" dir="s" state="M"/>
    <connection from="E4" to="E12" fromLane="0" toLane="0" via=":J13_0_0" dir="s" state="M"/>
    <connection from="E4" to="E12" fromLane="1" toLane="1" via=":J13_0_1" dir="s" state="M"/>
    <connection from="E5" to="E3" fromLane="0" toLane="0" via=":J1_7_0" dir="r" state="m"/>
    <connection from="E5" to="-E6" fromLane="0" toLane="0" via=":J1_8_0" dir="s" state="m"/>
    <connection from="E5" to="E4" fromLane="0" toLane="0" via=":J1_9_0" dir="l" state="m"/>
    <connection from="E5" to="E3" fromLane="1" toLane="1" via=":J1_10_0" dir="r" state="m"/>
    <connection from="E5" to="-E6" fromLane="1" toLane="1" via=":J1_11_0" dir="s" state="m"/>
    <connection from="E5" to="E4" fromLane="1" toLane="1" via=":J1_12_0" dir="l" state="m"/>
    <connection from="E5" to="-E5" fromLane="1" toLane="1" via=":J1_13_0" dir="t" state="m"/>
    <connection from="E6" to="E4" fromLane="0" toLane="0" via=":J1_21_0" dir="r" state="m"/>
    <connection from="E6" to="-E5" fromLane="0" toLane="0" via=":J1_22_0" dir="s" state="m"/>
    <connection from="E6" to="E3" fromLane="0" toLane="0" via=":J1_23_0" dir="l" state="m"/>
    <connection from="E6" to="E4" fromLane="1" toLane="1" via=":J1_24_0" dir="r" state="m"/>
    <connection from="E6" to="-E5" fromLane="1" toLane="1" via=":J1_25_0" dir="s" state="m"/>
    <connection from="E6" to="E3" fromLane="1" toLane="1" via=":J1_26_0" dir="l" state="m"/>
    <connection from="E6" to="-E6" fromLane="1" toLane="1" via=":J1_27_0" dir="t" state="m"/>

    <connection from=":J1_0" to="-E6" fromLane="0" toLane="0" dir="r" state="M"/>
    <connection from=":J1_1" to="E4" fromLane="0" toLane="0" dir="s" state="M"/>
    <connection from=":J1_2" to="-E5" fromLane="0" toLane="0" via=":J1_28_0" dir="l" state="m"/>
    <connection from=":J1_28" to="-E5" fromLane="0" toLane="0" dir="l" state="M"/>
    <connection from=":J1_3" to="-E6" fromLane="0" toLane="1" via=":J1_29_0" dir="r" state="m"/>
    <connection from=":J1_29" to="-E6" fromLane="0" toLane="1" dir="r" state="M"/>
    <connection from=":J1_4" to="E4" fromLane="0" toLane="1" dir="s" state="M"/>
    <connection from=":J1_5" to="-E5" fromLane="0" toLane="1" via=":J1_30_0" dir="l" state="m"/>
    <connection from=":J1_30" to="-E5" fromLane="0" toLane="1" dir="l" state="M"/>
    <connection from=":J1_6" to="E3" fromLane="0" toLane="1" via=":J1_31_0" dir="t" state="m"/>
    <connection from=":J1_31" to="E3" fromLane="0" toLane="1" dir="t" state="M"/>
    <connection from=":J1_7" to="E3" fromLane="0" toLane="0" dir="r" state="M"/>
    <connection from=":J1_8" to="-E6" fromLane="0" toLane="0" dir="s" state="M"/>
    <connection from=":J1_9" to="E4" fromLane="0" toLane="0" dir="l" state="M"/>
    <connection from=":J1_10" to="E3" fromLane="0" toLane="1" dir="r" state="M"/>
    <connection from=":J1_11" to="-E6" fromLane="0" toLane="1" dir="s" state="M"/>
    <connection from=":J1_12" to="E4" fromLane="0" toLane="1" dir="l" state="M"/>
    <connection from=":J1_13" to="-E5" fromLane="0" toLane="1" dir="t" state="M"/>
    <connection from=":J1_14" to="-E5" fromLane="0" toLane="0" dir="r" state="M"/>
    <connection from=":J1_15" to="E3" fromLane="0" toLane="0" dir="s" state="M"/>
    <connection from=":J1_16" to="-E6" fromLane="0" toLane="0" via=":J1_32_0" dir="l" state="m"/>
    <connection from=":J1_32" to="-E6" fromLane="0" toLane="0" dir="l" state="M"/>
    <connection from=":J1_17" to="-E5" fromLane="0" toLane="1" via=":J1_33_0" dir="r" state="m"/>
    <connection from=":J1_33" to="-E5" fromLane="0" toLane="1" dir="r" state="M"/>
    <connection from=":J1_18" to="E3" fromLane="0" toLane="1" dir="s" state="M"/>
    <connection from=":J1_19" to="-E6" fromLane="0" toLane="1" via=":J1_34_0" dir="l" state="m"/>
    <connection from=":J1_34" to="-E6" fromLane="0" toLane="1" dir="l" state="M"/>
    <connection from=":J1_20" to="E4" fromLane="0" toLane="1" via=":J1_35_0" dir="t" state="m"/>
    <connection from=":J1_35" to="E4" fromLane="0" toLane="1" dir="t" state="M"/>
    <connection from=":J1_21" to="E4" fromLane="0" toLane="0" dir="r" state="M"/>
    <connection from=":J1_22" to="-E5" fromLane="0" toLane="0" dir="s" state="M"/>
    <connection from=":J1_23" to="E3" fromLane="0" toLane="0" dir="l" state="M"/>
    <connection from=":J1_24" to="E4" fromLane="0" toLane="1" dir="r" state="M"/>
    <connection from=":J1_25" to="-E5" fromLane="0" toLane="1" dir="s" state="M"/>
    <connection from=":J1_26" to="E3" fromLane="0" toLane="1" dir="l" state="M"/>
    <connection from=":J1_27" to="-E6" fromLane="0" toLane="1" dir="t" state="M"/>
    <connection from=":J10_0" to="-E10" fromLane="0" toLane="0" dir="s" state="M"/>
    <connection from=":J10_0" to="-E10" fromLane="1" toLane="1" dir="s" state="M"/>
    <connection from=":J10_2" to="E6" fromLane="0" toLane="0" dir="s" state="M"/>
    <connection from=":J10_2" to="E6" fromLane="1" toLane="1" dir="s" state="M"/>
    <connection from=":J11_0" to="E5" fromLane="0" toLane="0" dir="s" state="M"/>
    <connection from=":J11_0" to="E5" fromLane="1" toLane="1" dir="s" state="M"/>
    <connection from=":J11_2" to="E11" fromLane="0" toLane="0" dir="s" state="M"/>