<?xml version="1.0" encoding="UTF-8"?>

<!-- generated on 2024-06-13 15:07:21 by Eclipse SUMO netedit Version 1.20.0
-->

<routes xmlns:xsi="http://www.w3.org/2001/XMLSchema-instance" xsi:noNamespaceSchemaLocation="http://sumo.dlr.de/xsd/routes_file.xsd">
    <!-- Routes -->
    <route id="r_0" edges="-E11 E5 E3 E13"/>
    <route id="r_1" edges="-E13 -E3 -E6 -E10"/>
    <route id="r_10" edges="-E12 -E4 E3 E13"/>
    <route id="r_11" edges="-E12 -E4 -E6 -E10"/>
    <route id="r_12" edges="-E11 E5 E3 E13"/>
    <route id="r_13" edges="-E11 E5 -E6 -E10"/>
    <route id="r_14" edges="-E11 E5 E4 E12"/>
    <route id="r_15" edges="E10 E6 -E6 -E10"/>
    <route id="r_16" edges="-E11 E5 -E5 E11"/>
    <route id="r_17" edges="-E12 -E4 E4 E12"/>
    <route id="r_18" edges="-E13 -E3 E3 E13"/>
    <route id="r_2" edges="-E13 -E3 E4 E12"/>
    <route id="r_3" edges="-E12 -E4 E3 E13"/>
    <route id="r_4" edges="E10 E6 -E5 E11"/>
    <route id="r_5" edges="E10 E6 E3 E13"/>
    <route id="r_6" edges="E10 E6 E4 E12"/>
    <route id="r_7" edges="-E13 -E3 E4 E12"/>
    <route id="r_8" edges="-E13 -E3 -E5 E11"/>
    <route id="r_9" edges="-E12 -E4 -E5 E11"/>
</routes>
